517769
  -OEChem-12131710312D

 22 10  0     0  0  0  0  0  0999 V2000
    3.9696   -0.3830    0.0000 Mn  0  0  0  0  0  0  0  0  0  0  0  0
    4.6124    0.3830    0.0000 Mn  0  0  0  0  0  0  0  0  0  0  0  0
    2.2376   -1.3830    0.0000 O   0  3  0  0  0  0  0  0  0  0  0  0
    2.0000   -0.0357    0.0000 O   0  3  0  0  0  0  0  0  0  0  0  0
    3.9696   -2.3830    0.0000 O   0  3  0  0  0  0  0  0  0  0  0  0
    2.7036    1.1258    0.0000 O   0  3  0  0  0  0  0  0  0  0  0  0
    5.2552   -1.9151    0.0000 O   0  3  0  0  0  0  0  0  0  0  0  0
    5.8980    1.9151    0.0000 O   0  3  0  0  0  0  0  0  0  0  0  0
    6.5820    0.0357    0.0000 O   0  3  0  0  0  0  0  0  0  0  0  0
    4.6124    2.3830    0.0000 O   0  3  0  0  0  0  0  0  0  0  0  0
    5.8980   -1.1491    0.0000 O   0  3  0  0  0  0  0  0  0  0  0  0
    3.3464    1.8918    0.0000 O   0  3  0  0  0  0  0  0  0  0  0  0
    3.1036   -0.8830    0.0000 C   0  5  0  0  0  0  0  0  0  0  0  0
    2.9848   -0.2094    0.0000 C   0  5  0  0  0  0  0  0  0  0  0  0
    3.9696   -1.3830    0.0000 C   0  5  0  0  0  0  0  0  0  0  0  0
    3.4696    0.4830    0.0000 C   0  5  0  0  0  0  0  0  0  0  0  0
    4.6124   -1.1491    0.0000 C   0  5  0  0  0  0  0  0  0  0  0  0
    5.2552    1.1491    0.0000 C   0  5  0  0  0  0  0  0  0  0  0  0
    5.5972    0.2094    0.0000 C   0  5  0  0  0  0  0  0  0  0  0  0
    4.6124    1.3830    0.0000 C   0  5  0  0  0  0  0  0  0  0  0  0
    5.2552   -0.3830    0.0000 C   0  5  0  0  0  0  0  0  0  0  0  0
    3.8464    1.0258    0.0000 C   0  5  0  0  0  0  0  0  0  0  0  0
  3 13  3  0  0  0  0
  4 14  3  0  0  0  0
  5 15  3  0  0  0  0
  6 16  3  0  0  0  0
  7 17  3  0  0  0  0
  8 18  3  0  0  0  0
  9 19  3  0  0  0  0
 10 20  3  0  0  0  0
 11 21  3  0  0  0  0
 12 22  3  0  0  0  0
M  CHG  8   3   1   4   1   5   1   6   1   7   1   8   1   9   1  10   1
M  CHG  8  11   1  12   1  13  -1  14  -1  15  -1  16  -1  17  -1  18  -1
M  CHG  4  19  -1  20  -1  21  -1  22  -1
M  END
> <PUBCHEM_COMPOUND_CID>
517769

> <PUBCHEM_COMPOUND_CANONICALIZED>
1

> <PUBCHEM_CACTVS_COMPLEXITY>
243

> <PUBCHEM_CACTVS_HBOND_ACCEPTOR>
10

> <PUBCHEM_CACTVS_HBOND_DONOR>
0

> <PUBCHEM_CACTVS_ROTATABLE_BOND>
0

> <PUBCHEM_CACTVS_SUBSKEYS>
AAADcQBwPAAAAABAAAAAAAAAAAAAAAAAAAAAAAAAAAAAAAAAAAAAAgAAAAAAAAAAAAAAAAAAAAAAAAAAAAAAAAAAAAAAAAAAAAAAAAAAAAAAAAAAAAAAAAAAAAAAAAAAAAAAAAAAAAAAAAAAAAAAAAAAAA==

> <PUBCHEM_IUPAC_OPENEYE_NAME>
carbon monoxide;manganese

> <PUBCHEM_IUPAC_CAS_NAME>
carbon monoxide;manganese

> <PUBCHEM_IUPAC_NAME>
carbon monoxide;manganese

> <PUBCHEM_IUPAC_SYSTEMATIC_NAME>
carbon monoxide;manganese

> <PUBCHEM_IUPAC_TRADITIONAL_NAME>
carbon monoxide;manganese

> <PUBCHEM_IUPAC_INCHI>
InChI=1S/10CO.2Mn/c10*1-2;;

> <PUBCHEM_IUPAC_INCHIKEY>
QFEOTYVTTQCYAZ-UHFFFAOYSA-N

> <PUBCHEM_EXACT_MASS>
389.825

> <PUBCHEM_MOLECULAR_FORMULA>
C10Mn2O10

> <PUBCHEM_MOLECULAR_WEIGHT>
389.976

> <PUBCHEM_OPENEYE_CAN_SMILES>
[C-]#[O+].[C-]#[O+].[C-]#[O+].[C-]#[O+].[C-]#[O+].[C-]#[O+].[C-]#[O+].[C-]#[O+].[C-]#[O+].[C-]#[O+].[Mn].[Mn]

> <PUBCHEM_OPENEYE_ISO_SMILES>
[C-]#[O+].[C-]#[O+].[C-]#[O+].[C-]#[O+].[C-]#[O+].[C-]#[O+].[C-]#[O+].[C-]#[O+].[C-]#[O+].[C-]#[O+].[Mn].[Mn]

> <PUBCHEM_CACTVS_TPSA>
10

> <PUBCHEM_MONOISOTOPIC_WEIGHT>
389.825

> <PUBCHEM_TOTAL_CHARGE>
0

> <PUBCHEM_HEAVY_ATOM_COUNT>
22

> <PUBCHEM_ATOM_DEF_STEREO_COUNT>
0

> <PUBCHEM_ATOM_UDEF_STEREO_COUNT>
0

> <PUBCHEM_BOND_DEF_STEREO_COUNT>
0

> <PUBCHEM_BOND_UDEF_STEREO_COUNT>
0

> <PUBCHEM_ISOTOPIC_ATOM_COUNT>
0

> <PUBCHEM_COMPONENT_COUNT>
12

> <PUBCHEM_CACTVS_TAUTO_COUNT>
1

> <PUBCHEM_NONSTANDARDBOND>
1  13  6
1  14  6
1  15  6
1  16  6
1  17  6
1  2  6
2  18  6
2  19  6
2  20  6
2  21  6
2  22  6

> <PUBCHEM_COORDINATE_TYPE>
1
5
255

$$$$
