14766
  -OEChem-11031713202D

  4  2  0     0  0  0  0  0  0999 V2000
    2.8660    0.2500    0.0000 Al  0  5  0  0  0  0  0  0  0  0  0  0
    2.0000    0.7500    0.0000 Na  0  3  0  0  0  0  0  0  0  0  0  0
    3.7320    0.7500    0.0000 O   0  0  0  0  0  0  0  0  0  0  0  0
    2.8660   -0.7500    0.0000 O   0  0  0  0  0  0  0  0  0  0  0  0
  1  3  2  0  0  0  0
  1  4  2  0  0  0  0
M  CHG  2   1  -1   2   1
M  END
> <PUBCHEM_COMPOUND_CID>
14766

> <PUBCHEM_COMPOUND_CANONICALIZED>
1

> <PUBCHEM_CACTVS_COMPLEXITY>
18.3

> <PUBCHEM_CACTVS_HBOND_ACCEPTOR>
3

> <PUBCHEM_CACTVS_HBOND_DONOR>
0

> <PUBCHEM_CACTVS_ROTATABLE_BOND>
0

> <PUBCHEM_CACTVS_SUBSKEYS>
AAADcQAAMCAAABAAAAAAAAAAAAAAAAAAAAAAAAAAAAAAAAAAAAAAAAAAAIAAAAAAAAAAAAAAAAAAAAAAAAAAAAAAAAAAAAAAAAAAAAAAAAAAAAAAAAAAAAAAAAAAAAAAAAAAAAAAAAAAAAAAAAAAAAAAAA==

> <PUBCHEM_IUPAC_OPENEYE_NAME>
sodium;dioxoalumanuide

> <PUBCHEM_IUPAC_CAS_NAME>
sodium;dioxoalumanuide

> <PUBCHEM_IUPAC_NAME>
sodium;dioxoalumanuide

> <PUBCHEM_IUPAC_SYSTEMATIC_NAME>
sodium;bis(oxidanylidene)alumanuide

> <PUBCHEM_IUPAC_TRADITIONAL_NAME>
sodium;diketoalumanuide

> <PUBCHEM_IUPAC_INCHI>
InChI=1S/Al.Na.2O/q-1;+1;;

> <PUBCHEM_IUPAC_INCHIKEY>
IYJYQHRNMMNLRH-UHFFFAOYSA-N

> <PUBCHEM_EXACT_MASS>
81.961

> <PUBCHEM_MOLECULAR_FORMULA>
AlNaO2

> <PUBCHEM_MOLECULAR_WEIGHT>
81.969

> <PUBCHEM_OPENEYE_CAN_SMILES>
O=[Al-]=O.[Na+]

> <PUBCHEM_OPENEYE_ISO_SMILES>
O=[Al-]=O.[Na+]

> <PUBCHEM_CACTVS_TPSA>
34.1

> <PUBCHEM_MONOISOTOPIC_WEIGHT>
81.961

> <PUBCHEM_TOTAL_CHARGE>
0

> <PUBCHEM_HEAVY_ATOM_COUNT>
4

> <PUBCHEM_ATOM_DEF_STEREO_COUNT>
0

> <PUBCHEM_ATOM_UDEF_STEREO_COUNT>
0

> <PUBCHEM_BOND_DEF_STEREO_COUNT>
0

> <PUBCHEM_BOND_UDEF_STEREO_COUNT>
0

> <PUBCHEM_ISOTOPIC_ATOM_COUNT>
0

> <PUBCHEM_COMPONENT_COUNT>
2

> <PUBCHEM_CACTVS_TAUTO_COUNT>
1

> <PUBCHEM_COORDINATE_TYPE>
1
5
255

$$$$
