159692
  -OEChem-12131710362D

 10  0  0     0  0  0  0  0  0999 V2000
    0.8660    3.0000    0.0000 Al  0  1  0  0  0  0  0  0  0  0  0  0
    3.7320    0.0000    0.0000 Na  0  3  0  0  0  0  0  0  0  0  0  0
    3.7320    2.5000    0.0000 Na  0  3  0  0  0  0  0  0  0  0  0  0
    3.7320    5.0000    0.0000 Na  0  3  0  0  0  0  0  0  0  0  0  0
    1.7320    3.5000    0.0000 F   0  5  0  0  0  0  0  0  0  0  0  0
    0.0000    3.5000    0.0000 F   0  5  0  0  0  0  0  0  0  0  0  0
    0.8660    2.0000    0.0000 F   0  5  0  0  0  0  0  0  0  0  0  0
    4.7320    0.0000    0.0000 F   0  5  0  0  0  0  0  0  0  0  0  0
    4.7320    2.5000    0.0000 F   0  5  0  0  0  0  0  0  0  0  0  0
    4.7320    5.0000    0.0000 F   0  5  0  0  0  0  0  0  0  0  0  0
M  CHG  8   1   3   2   1   3   1   4   1   5  -1   6  -1   7  -1   8  -1
M  CHG  2   9  -1  10  -1
M  END
> <PUBCHEM_COMPOUND_CID>
159692

> <PUBCHEM_COMPOUND_CANONICALIZED>
1

> <PUBCHEM_CACTVS_COMPLEXITY>
0

> <PUBCHEM_CACTVS_HBOND_ACCEPTOR>
6

> <PUBCHEM_CACTVS_HBOND_DONOR>
0

> <PUBCHEM_CACTVS_ROTATABLE_BOND>
0

> <PUBCHEM_CACTVS_SUBSKEYS>
AAADcQAAAfAAABAAAAAAAAAAAAAAAAAAAAAAAAAAAAAAAAAAAAAAAAAAAAAAAAAAAAAAAAAAAAAAAAAAAAAAAAAAAAAAAAAAAAAAAAAAAAAAAAAAAAAAAAAAAAAAAAAAAAAAAAAAAAAAAAAAAAAAAAAAAA==

> <PUBCHEM_IUPAC_OPENEYE_NAME>
aluminum;trisodium;hexafluoride

> <PUBCHEM_IUPAC_CAS_NAME>
aluminum;trisodium;hexafluoride

> <PUBCHEM_IUPAC_NAME>
aluminum;trisodium;hexafluoride

> <PUBCHEM_IUPAC_SYSTEMATIC_NAME>
aluminum;trisodium;hexafluoride

> <PUBCHEM_IUPAC_TRADITIONAL_NAME>
aluminum;trisodium;hexafluoride

> <PUBCHEM_IUPAC_INCHI>
InChI=1S/Al.6FH.3Na/h;6*1H;;;/q+3;;;;;;;3*+1/p-6

> <PUBCHEM_IUPAC_INCHIKEY>
REHXRBDMVPYGJX-UHFFFAOYSA-H

> <PUBCHEM_EXACT_MASS>
209.941

> <PUBCHEM_MOLECULAR_FORMULA>
AlF6Na3

> <PUBCHEM_MOLECULAR_WEIGHT>
209.941

> <PUBCHEM_OPENEYE_CAN_SMILES>
[F-].[F-].[F-].[F-].[F-].[F-].[Na+].[Na+].[Na+].[Al+3]

> <PUBCHEM_OPENEYE_ISO_SMILES>
[F-].[F-].[F-].[F-].[F-].[F-].[Na+].[Na+].[Na+].[Al+3]

> <PUBCHEM_CACTVS_TPSA>
0

> <PUBCHEM_MONOISOTOPIC_WEIGHT>
209.941

> <PUBCHEM_TOTAL_CHARGE>
0

> <PUBCHEM_HEAVY_ATOM_COUNT>
10

> <PUBCHEM_ATOM_DEF_STEREO_COUNT>
0

> <PUBCHEM_ATOM_UDEF_STEREO_COUNT>
0

> <PUBCHEM_BOND_DEF_STEREO_COUNT>
0

> <PUBCHEM_BOND_UDEF_STEREO_COUNT>
0

> <PUBCHEM_ISOTOPIC_ATOM_COUNT>
0

> <PUBCHEM_COMPONENT_COUNT>
10

> <PUBCHEM_CACTVS_TAUTO_COUNT>
1

> <PUBCHEM_COORDINATE_TYPE>
1
5
255

$$$$
