23690532
  -OEChem-11031713042D

  4  2  0     0  0  0  0  0  0999 V2000
    2.0000    0.2500    0.0000 Rb  0  3  0  0  0  0  0  0  0  0  0  0
    2.8660   -0.2500    0.0000 O   0  5  0  0  0  0  0  0  0  0  0  0
    4.5981   -0.2500    0.0000 O   0  0  0  0  0  0  0  0  0  0  0  0
    3.7320    0.2500    0.0000 N   0  0  0  0  0  0  0  0  0  0  0  0
  2  4  1  0  0  0  0
  3  4  2  0  0  0  0
M  CHG  2   1   1   2  -1
M  END
> <PUBCHEM_COMPOUND_CID>
23690532

> <PUBCHEM_COMPOUND_CANONICALIZED>
1

> <PUBCHEM_CACTVS_COMPLEXITY>
13.5

> <PUBCHEM_CACTVS_HBOND_ACCEPTOR>
3

> <PUBCHEM_CACTVS_HBOND_DONOR>
0

> <PUBCHEM_CACTVS_ROTATABLE_BOND>
0

> <PUBCHEM_CACTVS_SUBSKEYS>
AAADcQACMAAAAAAACAAAAAAAAAAAAAAAAAAAAAAAAAAAAAAAAAAAAAAEAAAAAAAAAAAAAAAAQAABAAAAAQAAAAAAAAAAAAAAAAAAAAAAAAAAAAAAAAAAAAAAAAAAAAAAAAAAAAAAAAAAAAAAAAAAAAAAAA==

> <PUBCHEM_IUPAC_OPENEYE_NAME>
rubidium(1+);nitrite

> <PUBCHEM_IUPAC_CAS_NAME>
rubidium(1+);nitrite

> <PUBCHEM_IUPAC_NAME>
rubidium(1+);nitrite

> <PUBCHEM_IUPAC_SYSTEMATIC_NAME>
rubidium(1+);nitrite

> <PUBCHEM_IUPAC_TRADITIONAL_NAME>
rubidium(1+);nitrite

> <PUBCHEM_IUPAC_INCHI>
InChI=1S/HNO2.Rb/c2-1-3;/h(H,2,3);/q;+1/p-1

> <PUBCHEM_IUPAC_INCHIKEY>
VPMVPQJJBGXJAI-UHFFFAOYSA-M

> <PUBCHEM_EXACT_MASS>
130.905

> <PUBCHEM_MOLECULAR_FORMULA>
NO2Rb

> <PUBCHEM_MOLECULAR_WEIGHT>
131.473

> <PUBCHEM_OPENEYE_CAN_SMILES>
N(=O)[O-].[Rb+]

> <PUBCHEM_OPENEYE_ISO_SMILES>
N(=O)[O-].[Rb+]

> <PUBCHEM_CACTVS_TPSA>
52.5

> <PUBCHEM_MONOISOTOPIC_WEIGHT>
130.905

> <PUBCHEM_TOTAL_CHARGE>
0

> <PUBCHEM_HEAVY_ATOM_COUNT>
4

> <PUBCHEM_ATOM_DEF_STEREO_COUNT>
0

> <PUBCHEM_ATOM_UDEF_STEREO_COUNT>
0

> <PUBCHEM_BOND_DEF_STEREO_COUNT>
0

> <PUBCHEM_BOND_UDEF_STEREO_COUNT>
0

> <PUBCHEM_ISOTOPIC_ATOM_COUNT>
0

> <PUBCHEM_COMPONENT_COUNT>
2

> <PUBCHEM_CACTVS_TAUTO_COUNT>
1

> <PUBCHEM_NONSTANDARDBOND>
1  2  7

> <PUBCHEM_COORDINATE_TYPE>
1
5
255

$$$$
