14497184
  -OEChem-11041702222D

 14  9  0     0  0  0  0  0  0999 V2000
    1.5675    0.8660    0.0000 S   0  0  0  0  0  0  0  0  0  0  0  0
    1.7320    4.5981    0.0000 S   0  0  0  0  0  0  0  0  0  0  0  0
    3.2996    0.8660    0.0000 Na  0  3  0  0  0  0  0  0  0  0  0  0
    3.4641    4.5981    0.0000 Na  0  3  0  0  0  0  0  0  0  0  0  0
    0.0000    4.5981    0.0000 Na  0  3  0  0  0  0  0  0  0  0  0  0
    0.7015    0.3660    0.0000 O   0  0  0  0  0  0  0  0  0  0  0  0
    2.4335    1.3660    0.0000 O   0  5  0  0  0  0  0  0  0  0  0  0
    1.0675    1.7320    0.0000 O   0  0  0  0  0  0  0  0  0  0  0  0
    2.0675    0.0000    0.0000 O   0  0  0  0  0  0  0  0  0  0  0  0
    2.5981    5.0981    0.0000 O   0  5  0  0  0  0  0  0  0  0  0  0
    0.8660    4.0981    0.0000 O   0  5  0  0  0  0  0  0  0  0  0  0
    1.2320    5.4641    0.0000 O   0  0  0  0  0  0  0  0  0  0  0  0
    2.2320    3.7320    0.0000 O   0  0  0  0  0  0  0  0  0  0  0  0
    0.1645    0.6760    0.0000 H   0  0  0  0  0  0  0  0  0  0  0  0
  1  6  1  0  0  0  0
  1  7  1  0  0  0  0
  1  8  2  0  0  0  0
  1  9  2  0  0  0  0
  2 10  1  0  0  0  0
  2 11  1  0  0  0  0
  2 12  2  0  0  0  0
  2 13  2  0  0  0  0
  6 14  1  0  0  0  0
M  CHG  6   3   1   4   1   5   1   7  -1  10  -1  11  -1
M  END
> <PUBCHEM_COMPOUND_CID>
14497184

> <PUBCHEM_COMPOUND_CANONICALIZED>
1

> <PUBCHEM_CACTVS_COMPLEXITY>
138

> <PUBCHEM_CACTVS_HBOND_ACCEPTOR>
8

> <PUBCHEM_CACTVS_HBOND_DONOR>
1

> <PUBCHEM_CACTVS_ROTATABLE_BOND>
0

> <PUBCHEM_CACTVS_SUBSKEYS>
AAADcQAAPDBgAAAAAAAAAAAAAAAAAAAAAAAAAAAAAAAAAAAAAAAAAAAACAAAAAAAAAAAAAAAAIAAAAAAADAAAAAAAAAAAAAAAAAAAAAAAAAAAAAAAAAAAAAAAAAAAAAAAAAAAAAAAAAAAAAAAAAAAAAAAA==

> <PUBCHEM_IUPAC_OPENEYE_NAME>
trisodium;hydrogen sulfate;sulfate

> <PUBCHEM_IUPAC_CAS_NAME>
trisodium;hydrogen sulfate;sulfate

> <PUBCHEM_IUPAC_NAME>
trisodium;hydrogen sulfate;sulfate

> <PUBCHEM_IUPAC_SYSTEMATIC_NAME>
trisodium;hydrogen sulfate;sulfate

> <PUBCHEM_IUPAC_TRADITIONAL_NAME>
trisodium;bisulfate;sulfate

> <PUBCHEM_IUPAC_INCHI>
InChI=1S/3Na.2H2O4S/c;;;2*1-5(2,3)4/h;;;2*(H2,1,2,3,4)/q3*+1;;/p-3

> <PUBCHEM_IUPAC_INCHIKEY>
GUVHOJGPIFAZQM-UHFFFAOYSA-K

> <PUBCHEM_EXACT_MASS>
261.881

> <PUBCHEM_MOLECULAR_FORMULA>
HNa3O8S2

> <PUBCHEM_MOLECULAR_WEIGHT>
262.089

> <PUBCHEM_OPENEYE_CAN_SMILES>
OS(=O)(=O)[O-].[O-]S(=O)(=O)[O-].[Na+].[Na+].[Na+]

> <PUBCHEM_OPENEYE_ISO_SMILES>
OS(=O)(=O)[O-].[O-]S(=O)(=O)[O-].[Na+].[Na+].[Na+]

> <PUBCHEM_CACTVS_TPSA>
174

> <PUBCHEM_MONOISOTOPIC_WEIGHT>
261.881

> <PUBCHEM_TOTAL_CHARGE>
0

> <PUBCHEM_HEAVY_ATOM_COUNT>
13

> <PUBCHEM_ATOM_DEF_STEREO_COUNT>
0

> <PUBCHEM_ATOM_UDEF_STEREO_COUNT>
0

> <PUBCHEM_BOND_DEF_STEREO_COUNT>
0

> <PUBCHEM_BOND_UDEF_STEREO_COUNT>
0

> <PUBCHEM_ISOTOPIC_ATOM_COUNT>
0

> <PUBCHEM_COMPONENT_COUNT>
5

> <PUBCHEM_CACTVS_TAUTO_COUNT>
1

> <PUBCHEM_COORDINATE_TYPE>
1
5
255

$$$$
