519095
  -OEChem-12131710402D

 27 12  0     0  0  0  0  0  0999 V2000
    4.4805   -0.4795    0.0000 Ru  0  0  0  0  0  0  0  0  0  0  0  0
    3.9805    0.3865    0.0000 Ru  0  0  0  0  0  0  0  0  0  0  0  0
    4.9805    0.3865    0.0000 Ru  0  0  0  0  0  0  0  0  0  0  0  0
    3.8625   -2.3816    0.0000 O   0  3  0  0  0  0  0  0  0  0  0  0
    5.2298   -2.3339    0.0000 O   0  3  0  0  0  0  0  0  0  0  0  0
    2.8625   -1.6551    0.0000 O   0  3  0  0  0  0  0  0  0  0  0  0
    6.2781   -1.3563    0.0000 O   0  3  0  0  0  0  0  0  0  0  0  0
    2.6423    1.8728    0.0000 O   0  3  0  0  0  0  0  0  0  0  0  0
    2.0000    0.6649    0.0000 O   0  3  0  0  0  0  0  0  0  0  0  0
    3.7715    2.3756    0.0000 O   0  3  0  0  0  0  0  0  0  0  0  0
    2.3224   -0.7318    0.0000 O   0  3  0  0  0  0  0  0  0  0  0  0
    6.9368    0.8023    0.0000 O   0  3  0  0  0  0  0  0  0  0  0  0
    6.2119    1.9625    0.0000 O   0  3  0  0  0  0  0  0  0  0  0  0
    6.8076   -0.4270    0.0000 O   0  3  0  0  0  0  0  0  0  0  0  0
    4.8410    2.3816    0.0000 O   0  3  0  0  0  0  0  0  0  0  0  0
    4.1715   -1.4306    0.0000 C   0  5  0  0  0  0  0  0  0  0  0  0
    4.8552   -1.4067    0.0000 C   0  5  0  0  0  0  0  0  0  0  0  0
    3.6715   -1.0673    0.0000 C   0  5  0  0  0  0  0  0  0  0  0  0
    5.3793   -0.9179    0.0000 C   0  5  0  0  0  0  0  0  0  0  0  0
    3.3114    1.1296    0.0000 C   0  5  0  0  0  0  0  0  0  0  0  0
    2.9903    0.5257    0.0000 C   0  5  0  0  0  0  0  0  0  0  0  0
    3.8760    1.3810    0.0000 C   0  5  0  0  0  0  0  0  0  0  0  0
    3.1515   -0.1726    0.0000 C   0  5  0  0  0  0  0  0  0  0  0  0
    5.9587    0.5944    0.0000 C   0  5  0  0  0  0  0  0  0  0  0  0
    5.5962    1.1745    0.0000 C   0  5  0  0  0  0  0  0  0  0  0  0
    5.8941   -0.0202    0.0000 C   0  5  0  0  0  0  0  0  0  0  0  0
    4.9108    1.3841    0.0000 C   0  5  0  0  0  0  0  0  0  0  0  0
  4 16  3  0  0  0  0
  5 17  3  0  0  0  0
  6 18  3  0  0  0  0
  7 19  3  0  0  0  0
  8 20  3  0  0  0  0
  9 21  3  0  0  0  0
 10 22  3  0  0  0  0
 11 23  3  0  0  0  0
 12 24  3  0  0  0  0
 13 25  3  0  0  0  0
 14 26  3  0  0  0  0
 15 27  3  0  0  0  0
M  CHG  8   4   1   5   1   6   1   7   1   8   1   9   1  10   1  11   1
M  CHG  8  12   1  13   1  14   1  15   1  16  -1  17  -1  18  -1  19  -1
M  CHG  8  20  -1  21  -1  22  -1  23  -1  24  -1  25  -1  26  -1  27  -1
M  END
> <PUBCHEM_COMPOUND_CID>
519095

> <PUBCHEM_COMPOUND_CANONICALIZED>
1

> <PUBCHEM_CACTVS_COMPLEXITY>
306

> <PUBCHEM_CACTVS_HBOND_ACCEPTOR>
12

> <PUBCHEM_CACTVS_HBOND_DONOR>
0

> <PUBCHEM_CACTVS_ROTATABLE_BOND>
0

> <PUBCHEM_CACTVS_SUBSKEYS>
AAADcQBwPAAAAAAAACAAAAAAEgAAAAAAAAAAAAAAAAAAAAAAAAAAAgAAAAAAAAAAAAAAAAAAAAAAAAAAAAAAAAAAAAAAAAAAAAAAAAAAAAAAAAAAAAAAAAAAAAAAAAAAAAAAAAAAAAAAAAAAAAAAAAAAAA==

> <PUBCHEM_IUPAC_OPENEYE_NAME>
carbon monoxide;ruthenium

> <PUBCHEM_IUPAC_CAS_NAME>
carbon monoxide;ruthenium

> <PUBCHEM_IUPAC_NAME>
carbon monoxide;ruthenium

> <PUBCHEM_IUPAC_SYSTEMATIC_NAME>
carbon monoxide;ruthenium

> <PUBCHEM_IUPAC_TRADITIONAL_NAME>
carbon monoxide;ruthenium

> <PUBCHEM_IUPAC_INCHI>
InChI=1S/12CO.3Ru/c12*1-2;;;

> <PUBCHEM_IUPAC_INCHIKEY>
NQZFAUXPNWSLBI-UHFFFAOYSA-N

> <PUBCHEM_EXACT_MASS>
642.654

> <PUBCHEM_MOLECULAR_FORMULA>
C12O12Ru3

> <PUBCHEM_MOLECULAR_WEIGHT>
639.33

> <PUBCHEM_OPENEYE_CAN_SMILES>
[C-]#[O+].[C-]#[O+].[C-]#[O+].[C-]#[O+].[C-]#[O+].[C-]#[O+].[C-]#[O+].[C-]#[O+].[C-]#[O+].[C-]#[O+].[C-]#[O+].[C-]#[O+].[Ru].[Ru].[Ru]

> <PUBCHEM_OPENEYE_ISO_SMILES>
[C-]#[O+].[C-]#[O+].[C-]#[O+].[C-]#[O+].[C-]#[O+].[C-]#[O+].[C-]#[O+].[C-]#[O+].[C-]#[O+].[C-]#[O+].[C-]#[O+].[C-]#[O+].[Ru].[Ru].[Ru]

> <PUBCHEM_CACTVS_TPSA>
12

> <PUBCHEM_MONOISOTOPIC_WEIGHT>
641.652

> <PUBCHEM_TOTAL_CHARGE>
0

> <PUBCHEM_HEAVY_ATOM_COUNT>
27

> <PUBCHEM_ATOM_DEF_STEREO_COUNT>
0

> <PUBCHEM_ATOM_UDEF_STEREO_COUNT>
0

> <PUBCHEM_BOND_DEF_STEREO_COUNT>
0

> <PUBCHEM_BOND_UDEF_STEREO_COUNT>
0

> <PUBCHEM_ISOTOPIC_ATOM_COUNT>
0

> <PUBCHEM_COMPONENT_COUNT>
15

> <PUBCHEM_CACTVS_TAUTO_COUNT>
1

> <PUBCHEM_NONSTANDARDBOND>
1  16  6
1  17  6
1  18  6
1  19  6
1  2  6
1  3  6
2  20  6
2  21  6
2  22  6
2  23  6
2  3  6
3  24  6
3  25  6
3  26  6
3  27  6

> <PUBCHEM_COORDINATE_TYPE>
1
5
255

$$$$
