61859
  -OEChem-12131710452D

  9  6  0     0  0  0  0  0  0999 V2000
    3.3660    1.0000    0.0000 Pt  0  6  0  0  0  0  0  0  0  0  0  0
    4.2320    1.5000    0.0000 Cl  0  0  0  0  0  0  0  0  0  0  0  0
    2.5000    0.5000    0.0000 Cl  0  0  0  0  0  0  0  0  0  0  0  0
    2.5000    1.5000    0.0000 Cl  0  0  0  0  0  0  0  0  0  0  0  0
    3.3660    0.0000    0.0000 Cl  0  0  0  0  0  0  0  0  0  0  0  0
    3.3660    2.0000    0.0000 Cl  0  0  0  0  0  0  0  0  0  0  0  0
    4.2320    0.5000    0.0000 Cl  0  0  0  0  0  0  0  0  0  0  0  0
    0.0000    2.0000    0.0000 H   0  3  0  0  0  0  0  0  0  0  0  0
    3.1160    4.0000    0.0000 H   0  3  0  0  0  0  0  0  0  0  0  0
  1  2  1  0  0  0  0
  1  3  1  0  0  0  0
  1  4  1  0  0  0  0
  1  5  1  0  0  0  0
  1  6  1  0  0  0  0
  1  7  1  0  0  0  0
M  CHG  3   1  -2   8   1   9   1
M  END
> <PUBCHEM_COMPOUND_CID>
61859

> <PUBCHEM_COMPOUND_CANONICALIZED>
1

> <PUBCHEM_CACTVS_COMPLEXITY>
62.7

> <PUBCHEM_CACTVS_HBOND_ACCEPTOR>
1

> <PUBCHEM_CACTVS_HBOND_DONOR>
2

> <PUBCHEM_CACTVS_ROTATABLE_BOND>
0

> <PUBCHEM_CACTVS_SUBSKEYS>
AAADcQAAAAAHAAAAAAAABAAAAAAAAAAAAAAAAAAAAAAAAAAAAAAAAAAAAAAAAAAAAAAAAAAAAAAAAAAAAAAAAAAAAAAAAAAAAAAAAAAAAAAAAAAAAAAAAAAAAAAAAAAAAAAAAAAAAAAAAAAAAAAAAAAAAA==

> <PUBCHEM_IUPAC_OPENEYE_NAME>
hexachloroplatinum(2-);hydron

> <PUBCHEM_IUPAC_CAS_NAME>
hexachloroplatinum(2-);hydron

> <PUBCHEM_IUPAC_NAME>
hexachloroplatinum(2-);hydron

> <PUBCHEM_IUPAC_SYSTEMATIC_NAME>
hexakis(chloranyl)platinum(2-);hydron

> <PUBCHEM_IUPAC_TRADITIONAL_NAME>
hexachloroplatinum(2-);hydron

> <PUBCHEM_IUPAC_INCHI>
InChI=1S/6ClH.Pt/h6*1H;/q;;;;;;+4/p-4

> <PUBCHEM_IUPAC_INCHIKEY>
GBFHNZZOZWQQPA-UHFFFAOYSA-J

> <PUBCHEM_EXACT_MASS>
408.791

> <PUBCHEM_MOLECULAR_FORMULA>
Cl6H2Pt

> <PUBCHEM_MOLECULAR_WEIGHT>
409.8

> <PUBCHEM_OPENEYE_CAN_SMILES>
[H+].[H+].Cl[Pt-2](Cl)(Cl)(Cl)(Cl)Cl

> <PUBCHEM_OPENEYE_ISO_SMILES>
[H+].[H+].Cl[Pt-2](Cl)(Cl)(Cl)(Cl)Cl

> <PUBCHEM_CACTVS_TPSA>
0

> <PUBCHEM_MONOISOTOPIC_WEIGHT>
406.794

> <PUBCHEM_TOTAL_CHARGE>
0

> <PUBCHEM_HEAVY_ATOM_COUNT>
7

> <PUBCHEM_ATOM_DEF_STEREO_COUNT>
0

> <PUBCHEM_ATOM_UDEF_STEREO_COUNT>
0

> <PUBCHEM_BOND_DEF_STEREO_COUNT>
0

> <PUBCHEM_BOND_UDEF_STEREO_COUNT>
0

> <PUBCHEM_ISOTOPIC_ATOM_COUNT>
0

> <PUBCHEM_COMPONENT_COUNT>
3

> <PUBCHEM_CACTVS_TAUTO_COUNT>
1

> <PUBCHEM_COORDINATE_TYPE>
1
5
255

$$$$
