24196325
  -OEChem-11011720272D

  9  7  0     0  0  0  0  0  0999 V2000
    1.4030    0.8660    0.0000 P   0  0  0  0  0  0  0  0  0  0  0  0
    1.1530    4.2690    0.0000 Na  0  4  0  0  0  0  0  0  0  0  0  0
    2.2690    1.3660    0.0000 O   0  0  0  0  0  0  0  0  0  0  0  0
    0.5369    0.3660    0.0000 O   0  0  0  0  0  0  0  0  0  0  0  0
    0.9030    1.7320    0.0000 O   0  0  0  0  0  0  0  0  0  0  0  0
    1.9030    0.0000    0.0000 O   0  0  0  0  0  0  0  0  0  0  0  0
    2.8059    1.0560    0.0000 H   0  0  0  0  0  0  0  0  0  0  0  0
    0.0000    0.6760    0.0000 H   0  0  0  0  0  0  0  0  0  0  0  0
    1.2130    2.2690    0.0000 H   0  0  0  0  0  0  0  0  0  0  0  0
  1  3  1  0  0  0  0
  1  4  1  0  0  0  0
  1  5  1  0  0  0  0
  1  6  2  0  0  0  0
  3  7  1  0  0  0  0
  4  8  1  0  0  0  0
  5  9  1  0  0  0  0
M  RAD  1   2   2
M  END
> <PUBCHEM_COMPOUND_CID>
24196325

> <PUBCHEM_COMPOUND_CANONICALIZED>
1

> <PUBCHEM_CACTVS_COMPLEXITY>
49.8

> <PUBCHEM_CACTVS_HBOND_ACCEPTOR>
4

> <PUBCHEM_CACTVS_HBOND_DONOR>
3

> <PUBCHEM_CACTVS_ROTATABLE_BOND>
0

> <PUBCHEM_CACTVS_SUBSKEYS>
AAADcQAAOCIAAAAAAAAAAAAAAAAAAAAAAAAAAAAAAAAAAAAAAAAAAAAACCAAAAAAAAAAAAAAABAAQAAAAIAAAAAAAAAAAAAAAAAAAAAAAAAAAAAAAAAAAAAAAAAAAAAAAAAAAAAAAAAAAAAAAAAAAAAAAA==

> <PUBCHEM_IUPAC_OPENEYE_NAME>
phosphoric acid;sodium

> <PUBCHEM_IUPAC_CAS_NAME>
phosphoric acid;sodium

> <PUBCHEM_IUPAC_NAME>
phosphoric acid;sodium

> <PUBCHEM_IUPAC_SYSTEMATIC_NAME>
phosphoric acid;sodium

> <PUBCHEM_IUPAC_TRADITIONAL_NAME>
phosphoric acid;sodium

> <PUBCHEM_IUPAC_INCHI>
InChI=1S/Na.H3O4P/c;1-5(2,3)4/h;(H3,1,2,3,4)

> <PUBCHEM_IUPAC_INCHIKEY>
NFIYTPYOYDDLGO-UHFFFAOYSA-N

> <PUBCHEM_EXACT_MASS>
120.967

> <PUBCHEM_MOLECULAR_FORMULA>
H3NaO4P

> <PUBCHEM_MOLECULAR_WEIGHT>
120.984

> <PUBCHEM_OPENEYE_CAN_SMILES>
OP(=O)(O)O.[Na]

> <PUBCHEM_OPENEYE_ISO_SMILES>
OP(=O)(O)O.[Na]

> <PUBCHEM_CACTVS_TPSA>
77.8

> <PUBCHEM_MONOISOTOPIC_WEIGHT>
120.967

> <PUBCHEM_TOTAL_CHARGE>
0

> <PUBCHEM_HEAVY_ATOM_COUNT>
6

> <PUBCHEM_ATOM_DEF_STEREO_COUNT>
0

> <PUBCHEM_ATOM_UDEF_STEREO_COUNT>
0

> <PUBCHEM_BOND_DEF_STEREO_COUNT>
0

> <PUBCHEM_BOND_UDEF_STEREO_COUNT>
0

> <PUBCHEM_ISOTOPIC_ATOM_COUNT>
0

> <PUBCHEM_COMPONENT_COUNT>
2

> <PUBCHEM_CACTVS_TAUTO_COUNT>
2

> <PUBCHEM_COORDINATE_TYPE>
1
5
255

$$$$
