86587427
  -OEChem-11011720142D

 10  7  0     0  0  0  0  0  0999 V2000
    3.9030    0.8660    0.0000 P   0  0  0  0  0  0  0  0  0  0  0  0
    0.0000    2.1345    0.0000 Na  0  4  0  0  0  0  0  0  0  0  0  0
    3.6530    4.2690    0.0000 Na  0  4  0  0  0  0  0  0  0  0  0  0
    4.7690    1.3660    0.0000 O   0  0  0  0  0  0  0  0  0  0  0  0
    3.0369    0.3660    0.0000 O   0  0  0  0  0  0  0  0  0  0  0  0
    3.4030    1.7320    0.0000 O   0  0  0  0  0  0  0  0  0  0  0  0
    4.4030    0.0000    0.0000 O   0  0  0  0  0  0  0  0  0  0  0  0
    5.3059    1.0560    0.0000 H   0  0  0  0  0  0  0  0  0  0  0  0
    2.5000    0.6760    0.0000 H   0  0  0  0  0  0  0  0  0  0  0  0
    3.7130    2.2690    0.0000 H   0  0  0  0  0  0  0  0  0  0  0  0
  1  4  1  0  0  0  0
  1  5  1  0  0  0  0
  1  6  1  0  0  0  0
  1  7  2  0  0  0  0
  4  8  1  0  0  0  0
  5  9  1  0  0  0  0
  6 10  1  0  0  0  0
M  RAD  2   2   2   3   2
M  END
> <PUBCHEM_COMPOUND_CID>
86587427

> <PUBCHEM_COMPOUND_CANONICALIZED>
1

> <PUBCHEM_CACTVS_COMPLEXITY>
49.8

> <PUBCHEM_CACTVS_HBOND_ACCEPTOR>
4

> <PUBCHEM_CACTVS_HBOND_DONOR>
3

> <PUBCHEM_CACTVS_ROTATABLE_BOND>
0

> <PUBCHEM_CACTVS_SUBSKEYS>
AAADcQAAODIAAAAAAAAAAAAAAAAAAAAAAAAAAAAAAAAAAAAAAAAAAAAACCAAAAAAAAAAAAAAABAAQAAAAIAAAAAAAAAAAAAAAAAAAAAAAAAAAAAAAAAAAAAAAAAAAAAAAAAAAAAAAAAAAAAAAAAAAAAAAA==

> <PUBCHEM_IUPAC_OPENEYE_NAME>
phosphoric acid;sodium

> <PUBCHEM_IUPAC_CAS_NAME>
phosphoric acid;sodium

> <PUBCHEM_IUPAC_NAME>
phosphoric acid;sodium

> <PUBCHEM_IUPAC_SYSTEMATIC_NAME>
phosphoric acid;sodium

> <PUBCHEM_IUPAC_TRADITIONAL_NAME>
phosphoric acid;sodium

> <PUBCHEM_IUPAC_INCHI>
InChI=1S/2Na.H3O4P/c;;1-5(2,3)4/h;;(H3,1,2,3,4)

> <PUBCHEM_IUPAC_INCHIKEY>
QLFFCLRSMTUBEZ-UHFFFAOYSA-N

> <PUBCHEM_EXACT_MASS>
143.956

> <PUBCHEM_MOLECULAR_FORMULA>
H3Na2O4P

> <PUBCHEM_MOLECULAR_WEIGHT>
143.973

> <PUBCHEM_OPENEYE_CAN_SMILES>
OP(=O)(O)O.[Na].[Na]

> <PUBCHEM_OPENEYE_ISO_SMILES>
OP(=O)(O)O.[Na].[Na]

> <PUBCHEM_CACTVS_TPSA>
77.8

> <PUBCHEM_MONOISOTOPIC_WEIGHT>
143.956

> <PUBCHEM_TOTAL_CHARGE>
0

> <PUBCHEM_HEAVY_ATOM_COUNT>
7

> <PUBCHEM_ATOM_DEF_STEREO_COUNT>
0

> <PUBCHEM_ATOM_UDEF_STEREO_COUNT>
0

> <PUBCHEM_BOND_DEF_STEREO_COUNT>
0

> <PUBCHEM_BOND_UDEF_STEREO_COUNT>
0

> <PUBCHEM_ISOTOPIC_ATOM_COUNT>
0

> <PUBCHEM_COMPONENT_COUNT>
3

> <PUBCHEM_CACTVS_TAUTO_COUNT>
2

> <PUBCHEM_COORDINATE_TYPE>
1
5
255

$$$$
