24455
  -OEChem-11021702122D

 18 12  0     0  0  0  0  0  0999 V2000
    5.4641    0.0000    0.0000 P   0  0  0  0  0  0  0  0  0  0  0  0
    7.1962    0.0000    0.0000 P   0  0  0  0  0  0  0  0  0  0  0  0
    3.7320    0.0000    0.0000 P   0  0  0  0  0  0  0  0  0  0  0  0
    5.4641    1.7320    0.0000 Na  0  3  0  0  0  0  0  0  0  0  0  0
    8.9282    0.0000    0.0000 Na  0  3  0  0  0  0  0  0  0  0  0  0
    7.1962    1.7320    0.0000 Na  0  3  0  0  0  0  0  0  0  0  0  0
    2.0000    0.0000    0.0000 Na  0  3  0  0  0  0  0  0  0  0  0  0
    3.7320   -1.7320    0.0000 Na  0  3  0  0  0  0  0  0  0  0  0  0
    6.3301    0.5000    0.0000 O   0  0  0  0  0  0  0  0  0  0  0  0
    4.5981   -0.5000    0.0000 O   0  0  0  0  0  0  0  0  0  0  0  0
    4.9641    0.8660    0.0000 O   0  5  0  0  0  0  0  0  0  0  0  0
    5.9641   -0.8660    0.0000 O   0  0  0  0  0  0  0  0  0  0  0  0
    8.0622   -0.5000    0.0000 O   0  5  0  0  0  0  0  0  0  0  0  0
    7.6962    0.8660    0.0000 O   0  5  0  0  0  0  0  0  0  0  0  0
    2.8660    0.5000    0.0000 O   0  5  0  0  0  0  0  0  0  0  0  0
    3.2320   -0.8660    0.0000 O   0  5  0  0  0  0  0  0  0  0  0  0
    6.6962   -0.8660    0.0000 O   0  0  0  0  0  0  0  0  0  0  0  0
    4.2320    0.8660    0.0000 O   0  0  0  0  0  0  0  0  0  0  0  0
  1  9  1  0  0  0  0
  1 10  1  0  0  0  0
  1 11  1  0  0  0  0
  1 12  2  0  0  0  0
  2  9  1  0  0  0  0
  2 13  1  0  0  0  0
  2 14  1  0  0  0  0
  2 17  2  0  0  0  0
  3 10  1  0  0  0  0
  3 15  1  0  0  0  0
  3 16  1  0  0  0  0
  3 18  2  0  0  0  0
M  CHG  8   4   1   5   1   6   1   7   1   8   1  11  -1  13  -1  14  -1
M  CHG  2  15  -1  16  -1
M  END
> <PUBCHEM_COMPOUND_CID>
24455

> <PUBCHEM_COMPOUND_CANONICALIZED>
1

> <PUBCHEM_CACTVS_COMPLEXITY>
241

> <PUBCHEM_CACTVS_HBOND_ACCEPTOR>
10

> <PUBCHEM_CACTVS_HBOND_DONOR>
0

> <PUBCHEM_CACTVS_ROTATABLE_BOND>
2

> <PUBCHEM_CACTVS_SUBSKEYS>
AAADcQAAPDMAAAAAAAAAAAAAAAAAAAAAAAAAAAAAAAAAAAAAAAAAAAAAACAAAAAAAAAAAAAAABAAQAAAAIAAAAAAAAAAAAAAAAAAAAAAAAAAAAAAAAAAAAAAAAAAAAAAAAAAAAAAAAAAAAAAAAAAAAAAAA==

> <PUBCHEM_IUPAC_OPENEYE_NAME>
pentasodium;[oxido(phosphonatooxy)phosphoryl] phosphate

> <PUBCHEM_IUPAC_CAS_NAME>
pentasodium;[oxido(phosphonatooxy)phosphoryl] phosphate

> <PUBCHEM_IUPAC_NAME>
pentasodium;[oxido(phosphonatooxy)phosphoryl] phosphate

> <PUBCHEM_IUPAC_SYSTEMATIC_NAME>
pentasodium;[oxidanidyl(phosphonatooxy)phosphoryl] phosphate

> <PUBCHEM_IUPAC_TRADITIONAL_NAME>
pentasodium;[oxido(phosphato)phosphoryl] phosphate

> <PUBCHEM_IUPAC_INCHI>
InChI=1S/5Na.H5O10P3/c;;;;;1-11(2,3)9-13(7,8)10-12(4,5)6/h;;;;;(H,7,8)(H2,1,2,3)(H2,4,5,6)/q5*+1;/p-5

> <PUBCHEM_IUPAC_INCHIKEY>
HWGNBUXHKFFFIH-UHFFFAOYSA-I

> <PUBCHEM_EXACT_MASS>
367.819

> <PUBCHEM_MOLECULAR_FORMULA>
Na5O10P3

> <PUBCHEM_MOLECULAR_WEIGHT>
367.86

> <PUBCHEM_OPENEYE_CAN_SMILES>
[O-]P(=O)([O-])OP(=O)([O-])OP(=O)([O-])[O-].[Na+].[Na+].[Na+].[Na+].[Na+]

> <PUBCHEM_OPENEYE_ISO_SMILES>
[O-]P(=O)([O-])OP(=O)([O-])OP(=O)([O-])[O-].[Na+].[Na+].[Na+].[Na+].[Na+]

> <PUBCHEM_CACTVS_TPSA>
185

> <PUBCHEM_MONOISOTOPIC_WEIGHT>
367.819

> <PUBCHEM_TOTAL_CHARGE>
0

> <PUBCHEM_HEAVY_ATOM_COUNT>
18

> <PUBCHEM_ATOM_DEF_STEREO_COUNT>
0

> <PUBCHEM_ATOM_UDEF_STEREO_COUNT>
0

> <PUBCHEM_BOND_DEF_STEREO_COUNT>
0

> <PUBCHEM_BOND_UDEF_STEREO_COUNT>
0

> <PUBCHEM_ISOTOPIC_ATOM_COUNT>
0

> <PUBCHEM_COMPONENT_COUNT>
6

> <PUBCHEM_CACTVS_TAUTO_COUNT>
1

> <PUBCHEM_COORDINATE_TYPE>
1
5
255

$$$$
