24564
  -OEChem-11011720412D

 22 15  0     0  0  0  0  0  0999 V2000
    1.7320    3.5000    0.0000 Cl  0  0  0  0  0  0  0  0  0  0  0  0
    0.0000    3.5000    0.0000 Cl  0  0  0  0  0  0  0  0  0  0  0  0
    0.8660    2.0000    0.0000 Cl  0  0  0  0  0  0  0  0  0  0  0  0
    0.8660    3.0000    0.0000 Al  0  0  0  0  0  0  0  0  0  0  0  0
    0.8660    5.5000    0.0000 O   0  0  0  0  0  0  0  0  0  0  0  0
    4.2690    0.0000    0.0000 O   0  0  0  0  0  0  0  0  0  0  0  0
    4.2690    2.5000    0.0000 O   0  0  0  0  0  0  0  0  0  0  0  0
    4.2690    5.0000    0.0000 O   0  0  0  0  0  0  0  0  0  0  0  0
    4.2690    7.5000    0.0000 O   0  0  0  0  0  0  0  0  0  0  0  0
    7.3429    3.7500    0.0000 O   0  0  0  0  0  0  0  0  0  0  0  0
    7.8798    4.0600    0.0000 H   0  0  0  0  0  0  0  0  0  0  0  0
    6.8059    4.0600    0.0000 H   0  0  0  0  0  0  0  0  0  0  0  0
    4.8059    7.8100    0.0000 H   0  0  0  0  0  0  0  0  0  0  0  0
    3.7320    7.8100    0.0000 H   0  0  0  0  0  0  0  0  0  0  0  0
    4.8059    5.3100    0.0000 H   0  0  0  0  0  0  0  0  0  0  0  0
    3.7320    5.3100    0.0000 H   0  0  0  0  0  0  0  0  0  0  0  0
    4.8059    2.8100    0.0000 H   0  0  0  0  0  0  0  0  0  0  0  0
    3.7320    2.8100    0.0000 H   0  0  0  0  0  0  0  0  0  0  0  0
    4.8059    0.3100    0.0000 H   0  0  0  0  0  0  0  0  0  0  0  0
    3.7320    0.3100    0.0000 H   0  0  0  0  0  0  0  0  0  0  0  0
    1.4030    5.8100    0.0000 H   0  0  0  0  0  0  0  0  0  0  0  0
    0.3291    5.8100    0.0000 H   0  0  0  0  0  0  0  0  0  0  0  0
  1  4  1  0  0  0  0
  2  4  1  0  0  0  0
  3  4  1  0  0  0  0
  5 21  1  0  0  0  0
  5 22  1  0  0  0  0
  6 19  1  0  0  0  0
  6 20  1  0  0  0  0
  7 17  1  0  0  0  0
  7 18  1  0  0  0  0
  8 15  1  0  0  0  0
  8 16  1  0  0  0  0
  9 13  1  0  0  0  0
  9 14  1  0  0  0  0
 10 11  1  0  0  0  0
 10 12  1  0  0  0  0
M  END
> <PUBCHEM_COMPOUND_CID>
24564

> <PUBCHEM_COMPOUND_CANONICALIZED>
1

> <PUBCHEM_CACTVS_COMPLEXITY>
8

> <PUBCHEM_CACTVS_HBOND_ACCEPTOR>
6

> <PUBCHEM_CACTVS_HBOND_DONOR>
6

> <PUBCHEM_CACTVS_ROTATABLE_BOND>
0

> <PUBCHEM_CACTVS_SUBSKEYS>
AAADccAAOAAGABAAAAAAAAAAAAAAAAAAAAAAAAAAAAAAAAAAAAAAAAAACAEAAAAAAAAAAAAAAAAAAAAAAAAAAAAAAAAAAAAAAAAAAAAAAAAAAAAAAAAAAAAAAAAAAAAAAAAAAAAAAAAAAAAAAAAAAAAAAA==

> <PUBCHEM_IUPAC_OPENEYE_NAME>
trichloroalumane;hexahydrate

> <PUBCHEM_IUPAC_CAS_NAME>
trichloroalumane;hexahydrate

> <PUBCHEM_IUPAC_NAME>
trichloroalumane;hexahydrate

> <PUBCHEM_IUPAC_SYSTEMATIC_NAME>
tris(chloranyl)alumane;hexahydrate

> <PUBCHEM_IUPAC_TRADITIONAL_NAME>
trichloroalumane;hexahydrate

> <PUBCHEM_IUPAC_INCHI>
InChI=1S/Al.3ClH.6H2O/h;3*1H;6*1H2/q+3;;;;;;;;;/p-3

> <PUBCHEM_IUPAC_INCHIKEY>
JGDITNMASUZKPW-UHFFFAOYSA-K

> <PUBCHEM_EXACT_MASS>
239.951

> <PUBCHEM_MOLECULAR_FORMULA>
AlCl3H12O6

> <PUBCHEM_MOLECULAR_WEIGHT>
241.422

> <PUBCHEM_OPENEYE_CAN_SMILES>
O.O.O.O.O.O.[Al](Cl)(Cl)Cl

> <PUBCHEM_OPENEYE_ISO_SMILES>
O.O.O.O.O.O.[Al](Cl)(Cl)Cl

> <PUBCHEM_CACTVS_TPSA>
6

> <PUBCHEM_MONOISOTOPIC_WEIGHT>
239.951

> <PUBCHEM_TOTAL_CHARGE>
0

> <PUBCHEM_HEAVY_ATOM_COUNT>
10

> <PUBCHEM_ATOM_DEF_STEREO_COUNT>
0

> <PUBCHEM_ATOM_UDEF_STEREO_COUNT>
0

> <PUBCHEM_BOND_DEF_STEREO_COUNT>
0

> <PUBCHEM_BOND_UDEF_STEREO_COUNT>
0

> <PUBCHEM_ISOTOPIC_ATOM_COUNT>
0

> <PUBCHEM_COMPONENT_COUNT>
7

> <PUBCHEM_CACTVS_TAUTO_COUNT>
1

> <PUBCHEM_COORDINATE_TYPE>
1
5
255

$$$$
