22833314
  -OEChem-11191718022D

 28 26  0     0  0  0  0  0  0999 V2000
    3.5000    0.2500    0.0000 Cl  0  3  0  0  0  0  0  0  0  0  0  0
    4.5000   -0.7500    0.0000 Cl  0  3  0  0  0  0  0  0  0  0  0  0
    3.5000   -1.7500    0.0000 Cl  0  0  0  0  0  0  0  0  0  0  0  0
    4.5000    0.2500    0.0000 Al  0  5  0  0  0  2  0  0  0  0  0  0
    3.5000   -0.7500    0.0000 Al  0  5  0  0  0  0  0  0  0  0  0  0
    5.5000    0.2500    0.0000 C   0  0  0  0  0  0  0  0  0  0  0  0
    4.5000    1.2500    0.0000 C   0  0  0  0  0  0  0  0  0  0  0  0
    2.5000   -0.7500    0.0000 C   0  0  0  0  0  0  0  0  0  0  0  0
    6.0000    1.1160    0.0000 C   0  0  0  0  0  0  0  0  0  0  0  0
    3.6340    1.7500    0.0000 C   0  0  0  0  0  0  0  0  0  0  0  0
    2.0000   -1.6160    0.0000 C   0  0  0  0  0  0  0  0  0  0  0  0
    3.0616    0.6884    0.0000 H   0  0  0  0  0  0  0  0  0  0  0  0
    4.9384   -1.1884    0.0000 H   0  0  0  0  0  0  0  0  0  0  0  0
    5.1106    1.1423    0.0000 H   0  0  0  0  0  0  0  0  0  0  0  0
    4.7120    1.8326    0.0000 H   0  0  0  0  0  0  0  0  0  0  0  0
    5.3923   -0.3606    0.0000 H   0  0  0  0  0  0  0  0  0  0  0  0
    6.0826    0.0379    0.0000 H   0  0  0  0  0  0  0  0  0  0  0  0
    2.6077   -0.1394    0.0000 H   0  0  0  0  0  0  0  0  0  0  0  0
    1.9174   -0.5379    0.0000 H   0  0  0  0  0  0  0  0  0  0  0  0
    6.5369    0.8060    0.0000 H   0  0  0  0  0  0  0  0  0  0  0  0
    6.3100    1.6530    0.0000 H   0  0  0  0  0  0  0  0  0  0  0  0
    5.4631    1.4260    0.0000 H   0  0  0  0  0  0  0  0  0  0  0  0
    3.9440    2.2869    0.0000 H   0  0  0  0  0  0  0  0  0  0  0  0
    3.0970    2.0600    0.0000 H   0  0  0  0  0  0  0  0  0  0  0  0
    3.3240    1.2131    0.0000 H   0  0  0  0  0  0  0  0  0  0  0  0
    1.4631   -1.3060    0.0000 H   0  0  0  0  0  0  0  0  0  0  0  0
    1.6900   -2.1530    0.0000 H   0  0  0  0  0  0  0  0  0  0  0  0
    2.5369   -1.9260    0.0000 H   0  0  0  0  0  0  0  0  0  0  0  0
  1  5  1  0  0  0  0
  1 12  1  0  0  0  0
  2  5  1  0  0  0  0
  2 13  1  0  0  0  0
  3  5  1  0  0  0  0
  4  6  1  0  0  0  0
  4  7  1  0  0  0  0
  5  8  1  0  0  0  0
  6  9  1  0  0  0  0
  6 16  1  0  0  0  0
  6 17  1  0  0  0  0
  7 10  1  0  0  0  0
  7 14  1  0  0  0  0
  7 15  1  0  0  0  0
  8 11  1  0  0  0  0
  8 18  1  0  0  0  0
  8 19  1  0  0  0  0
  9 20  1  0  0  0  0
  9 21  1  0  0  0  0
  9 22  1  0  0  0  0
 10 23  1  0  0  0  0
 10 24  1  0  0  0  0
 10 25  1  0  0  0  0
 11 26  1  0  0  0  0
 11 27  1  0  0  0  0
 11 28  1  0  0  0  0
M  CHG  4   1   1   2   1   4  -1   5  -1
M  END
> <PUBCHEM_COMPOUND_CID>
22833314

> <PUBCHEM_COMPOUND_CANONICALIZED>
1

> <PUBCHEM_CACTVS_COMPLEXITY>
76.2

> <PUBCHEM_CACTVS_HBOND_ACCEPTOR>
2

> <PUBCHEM_CACTVS_HBOND_DONOR>
2

> <PUBCHEM_CACTVS_ROTATABLE_BOND>
3

> <PUBCHEM_CACTVS_SUBSKEYS>
AAADceBgAAAGABAAAAAAAAAAAABIAAAAAAAAAAAAAAAAAAAAAAAAGCAAAAEAAACAAAACAAAAAAAAAAAAAAAAAAAAAAAAAAAAAAAAAAAAAAAAAAAAAAAAAAAAAAAAAAAAAAAAAAAAAAAAAAAAAAAAAAAAAA==

> <PUBCHEM_IUPAC_OPENEYE_NAME>
chloro-dichloronio-ethyl-alumanuide;diethylalumanide

> <PUBCHEM_IUPAC_CAS_NAME>
chloro-dichloronio-ethylalumanuide;diethylalumanide

> <PUBCHEM_IUPAC_NAME>
chloro-dichloronio-ethylalumanuide;diethylalumanide

> <PUBCHEM_IUPAC_SYSTEMATIC_NAME>
bis(chloraniumyl)-chloranyl-ethyl-alumanuide;diethylalumanide

> <PUBCHEM_IUPAC_TRADITIONAL_NAME>
chloro-dichloronio-ethyl-alumanuide;diethylalumanide

> <PUBCHEM_IUPAC_INCHI>
InChI=1S/3C2H5.2Al.3ClH/c3*1-2;;;;;/h3*1H2,2H3;;;3*1H/q;;;-1;+2;;;/p-1

> <PUBCHEM_IUPAC_INCHIKEY>
VIFRDHJRBVWBKU-UHFFFAOYSA-M

> <PUBCHEM_EXACT_MASS>
248.003

> <PUBCHEM_MOLECULAR_FORMULA>
C6H17Al2Cl3

> <PUBCHEM_MOLECULAR_WEIGHT>
249.515

> <PUBCHEM_OPENEYE_CAN_SMILES>
CC[Al-]CC.CC[Al-]([ClH+])([ClH+])Cl

> <PUBCHEM_OPENEYE_ISO_SMILES>
CC[Al-]CC.CC[Al-]([ClH+])([ClH+])Cl

> <PUBCHEM_CACTVS_TPSA>
0

> <PUBCHEM_MONOISOTOPIC_WEIGHT>
248.003

> <PUBCHEM_TOTAL_CHARGE>
0

> <PUBCHEM_HEAVY_ATOM_COUNT>
11

> <PUBCHEM_ATOM_DEF_STEREO_COUNT>
0

> <PUBCHEM_ATOM_UDEF_STEREO_COUNT>
0

> <PUBCHEM_BOND_DEF_STEREO_COUNT>
0

> <PUBCHEM_BOND_UDEF_STEREO_COUNT>
0

> <PUBCHEM_ISOTOPIC_ATOM_COUNT>
0

> <PUBCHEM_COMPONENT_COUNT>
2

> <PUBCHEM_CACTVS_TAUTO_COUNT>
1

> <PUBCHEM_NONSTANDARDBOND>
1  4  6
2  4  6

> <PUBCHEM_COORDINATE_TYPE>
1
5
255

$$$$
