32793
  -OEChem-11211710342D

 39 38  0     0  0  0  0  0  0999 V2000
    2.5369   -1.3170    0.0000 S   0  0  0  0  0  0  0  0  0  0  0  0
    4.2690   -0.3170    0.0000 C   0  0  0  0  0  0  0  0  0  0  0  0
    5.1350    0.1830    0.0000 C   0  0  0  0  0  0  0  0  0  0  0  0
    3.4030   -0.8170    0.0000 C   0  0  0  0  0  0  0  0  0  0  0  0
    6.0010    0.6830    0.0000 C   0  0  0  0  0  0  0  0  0  0  0  0
    3.7690    0.5490    0.0000 C   0  0  0  0  0  0  0  0  0  0  0  0
    4.7690   -1.1830    0.0000 C   0  0  0  0  0  0  0  0  0  0  0  0
    4.6350    1.0490    0.0000 C   0  0  0  0  0  0  0  0  0  0  0  0
    5.6350   -0.6830    0.0000 C   0  0  0  0  0  0  0  0  0  0  0  0
    2.9030    0.0490    0.0000 C   0  0  0  0  0  0  0  0  0  0  0  0
    3.9030   -1.6830    0.0000 C   0  0  0  0  0  0  0  0  0  0  0  0
    6.8671    0.1830    0.0000 C   0  0  0  0  0  0  0  0  0  0  0  0
    6.0010    1.6830    0.0000 C   0  0  0  0  0  0  0  0  0  0  0  0
    6.5380    0.9930    0.0000 H   0  0  0  0  0  0  0  0  0  0  0  0
    4.2320   -1.4930    0.0000 H   0  0  0  0  0  0  0  0  0  0  0  0
    5.0790   -1.7200    0.0000 H   0  0  0  0  0  0  0  0  0  0  0  0
    5.3059   -0.8730    0.0000 H   0  0  0  0  0  0  0  0  0  0  0  0
    4.3059    0.8590    0.0000 H   0  0  0  0  0  0  0  0  0  0  0  0
    3.4590    1.0860    0.0000 H   0  0  0  0  0  0  0  0  0  0  0  0
    3.2320    0.2390    0.0000 H   0  0  0  0  0  0  0  0  0  0  0  0
    5.0981   -0.9930    0.0000 H   0  0  0  0  0  0  0  0  0  0  0  0
    5.9450   -1.2200    0.0000 H   0  0  0  0  0  0  0  0  0  0  0  0
    6.1720   -0.3730    0.0000 H   0  0  0  0  0  0  0  0  0  0  0  0
    5.1720    1.3590    0.0000 H   0  0  0  0  0  0  0  0  0  0  0  0
    4.3250    1.5860    0.0000 H   0  0  0  0  0  0  0  0  0  0  0  0
    4.0981    0.7390    0.0000 H   0  0  0  0  0  0  0  0  0  0  0  0
    3.4399    0.3590    0.0000 H   0  0  0  0  0  0  0  0  0  0  0  0
    2.5930    0.5860    0.0000 H   0  0  0  0  0  0  0  0  0  0  0  0
    2.3660   -0.2610    0.0000 H   0  0  0  0  0  0  0  0  0  0  0  0
    3.3660   -1.9930    0.0000 H   0  0  0  0  0  0  0  0  0  0  0  0
    4.2130   -2.2200    0.0000 H   0  0  0  0  0  0  0  0  0  0  0  0
    4.4399   -1.3730    0.0000 H   0  0  0  0  0  0  0  0  0  0  0  0
    6.5571   -0.3539    0.0000 H   0  0  0  0  0  0  0  0  0  0  0  0
    7.4040   -0.1270    0.0000 H   0  0  0  0  0  0  0  0  0  0  0  0
    7.1771    0.7199    0.0000 H   0  0  0  0  0  0  0  0  0  0  0  0
    6.6210    1.6830    0.0000 H   0  0  0  0  0  0  0  0  0  0  0  0
    6.0010    2.3030    0.0000 H   0  0  0  0  0  0  0  0  0  0  0  0
    5.3810    1.6830    0.0000 H   0  0  0  0  0  0  0  0  0  0  0  0
    2.0000   -1.0070    0.0000 H   0  0  0  0  0  0  0  0  0  0  0  0
  1  4  1  0  0  0  0
  1 39  1  0  0  0  0
  2  3  1  0  0  0  0
  2  4  1  0  0  0  0
  2  6  1  0  0  0  0
  2  7  1  0  0  0  0
  3  5  1  0  0  0  0
  3  8  1  0  0  0  0
  3  9  1  0  0  0  0
  4 10  1  0  0  0  0
  4 11  1  0  0  0  0
  5 12  1  0  0  0  0
  5 13  1  0  0  0  0
  5 14  1  0  0  0  0
  6 18  1  0  0  0  0
  6 19  1  0  0  0  0
  6 20  1  0  0  0  0
  7 15  1  0  0  0  0
  7 16  1  0  0  0  0
  7 17  1  0  0  0  0
  8 24  1  0  0  0  0
  8 25  1  0  0  0  0
  8 26  1  0  0  0  0
  9 21  1  0  0  0  0
  9 22  1  0  0  0  0
  9 23  1  0  0  0  0
 10 27  1  0  0  0  0
 10 28  1  0  0  0  0
 10 29  1  0  0  0  0
 11 30  1  0  0  0  0
 11 31  1  0  0  0  0
 11 32  1  0  0  0  0
 12 33  1  0  0  0  0
 12 34  1  0  0  0  0
 12 35  1  0  0  0  0
 13 36  1  0  0  0  0
 13 37  1  0  0  0  0
 13 38  1  0  0  0  0
M  END
> <PUBCHEM_COMPOUND_CID>
32793

> <PUBCHEM_COMPOUND_CANONICALIZED>
1

> <PUBCHEM_CACTVS_COMPLEXITY>
176

> <PUBCHEM_CACTVS_HBOND_ACCEPTOR>
1

> <PUBCHEM_CACTVS_HBOND_DONOR>
1

> <PUBCHEM_CACTVS_ROTATABLE_BOND>
3

> <PUBCHEM_CACTVS_SUBSKEYS>
AAADceBwAABAAAAAAAAAAAAAAAAAAAAAAAAAAAAAAAAAAAAAAAAAGAQAAAAADwCAQAACAAAAAAQAAAAAAAAAAAAAAAAAAAAAAAAAAAIAAAAAAAAAAAAAAAEAAAAPgAAAAAAAAAAAAAAAAAAAAAAAAAAAAA==

> <PUBCHEM_IUPAC_OPENEYE_NAME>
2,3,3,4,4,5-hexamethylhexane-2-thiol

> <PUBCHEM_IUPAC_CAS_NAME>
2,3,3,4,4,5-hexamethyl-2-hexanethiol

> <PUBCHEM_IUPAC_NAME>
2,3,3,4,4,5-hexamethylhexane-2-thiol

> <PUBCHEM_IUPAC_SYSTEMATIC_NAME>
2,3,3,4,4,5-hexamethylhexane-2-thiol

> <PUBCHEM_IUPAC_TRADITIONAL_NAME>
2,3,3,4,4,5-hexamethylhexane-2-thiol

> <PUBCHEM_IUPAC_INCHI>
InChI=1S/C12H26S/c1-9(2)10(3,4)11(5,6)12(7,8)13/h9,13H,1-8H3

> <PUBCHEM_IUPAC_INCHIKEY>
YAJYJWXEWKRTPO-UHFFFAOYSA-N

> <PUBCHEM_XLOGP3_AA>
4.8

> <PUBCHEM_EXACT_MASS>
202.176

> <PUBCHEM_MOLECULAR_FORMULA>
C12H26S

> <PUBCHEM_MOLECULAR_WEIGHT>
202.4

> <PUBCHEM_OPENEYE_CAN_SMILES>
CC(C)C(C)(C)C(C)(C)C(C)(C)S

> <PUBCHEM_OPENEYE_ISO_SMILES>
CC(C)C(C)(C)C(C)(C)C(C)(C)S

> <PUBCHEM_CACTVS_TPSA>
1

> <PUBCHEM_MONOISOTOPIC_WEIGHT>
202.176

> <PUBCHEM_TOTAL_CHARGE>
0

> <PUBCHEM_HEAVY_ATOM_COUNT>
13

> <PUBCHEM_ATOM_DEF_STEREO_COUNT>
0

> <PUBCHEM_ATOM_UDEF_STEREO_COUNT>
0

> <PUBCHEM_BOND_DEF_STEREO_COUNT>
0

> <PUBCHEM_BOND_UDEF_STEREO_COUNT>
0

> <PUBCHEM_ISOTOPIC_ATOM_COUNT>
0

> <PUBCHEM_COMPONENT_COUNT>
1

> <PUBCHEM_CACTVS_TAUTO_COUNT>
1

> <PUBCHEM_COORDINATE_TYPE>
1
5
255

$$$$
