


  9  8  0  0000  0  0  0  0  0999 V2000
    4.5981    0.9050    0.0000 O   0  0  0  0  0  0  0  0  0  0  0
    3.7321   -0.5950    0.0000 O   0  0  0  0  0  0  0  0  0  0  0
    5.4641   -0.5950    0.0000 O   0  0  0  0  0  0  0  0  0  0  0
    3.7321    0.4050    0.0000 C   0  0  0  0  0  0  0  0  0  0  0
    5.4641    0.4050    0.0000 C   0  0  0  0  0  0  0  0  0  0  0
    2.8660    0.9050    0.0000 C   0  0  0  0  0  0  0  0  0  0  0
    6.3301    0.9050    0.0000 C   0  0  0  0  0  0  0  0  0  0  0
    2.0000    0.4050    0.0000 C   0  0  0  0  0  0  0  0  0  0  0
    7.1962    0.4050    0.0000 C   0  0  0  0  0  0  0  0  0  0  0
  1  4  1  0
  1  5  1  0
  2  4  1  0
  3  5  1  0
  4  6  1  0
  5  7  1  0
  6  8  1  0
  7  9  1  0
M  END

> <PUBCHEM_BONDANNOTATIONS>
4  2  3
5  3  3

> <StdInChI>
InChI=1S/C6H14O3/c1-3-5(7)9-6(8)4-2/h5-8H,3-4H2,1-2H3

> <StdInChIKey>
QYSXYAURTRCDJU-UHFFFAOYSA-N

> <AuxInfo>
1/0/N:8,9,6,7,4,5,2,3,1/E:(1,2)(3,4)(5,6)(7,8)/rA:23cOOOCCCCCCHHHHHHHHHHHHHH/rB:;;s1s2;s1s3;s4;s5;s6;s7;s4;s5;s6;s6;s7;s7;s8;s8;s8;s9;s9;s9;s2;s3;/rC:4.5981,.905,0;3.7321,-.595,0;5.4641,-.595,0;3.7321,.405,0;5.4641,.405,0;2.866,.905,0;6.3301,.905,0;2,.405,0;7.1962,.405,0;3.1951,.095,0;6.001,.095,0;2.4675,1.3799,0;3.2646,1.3799,0;6.7287,1.3799,0;5.9316,1.3799,0;1.69,.9419,0;1.4631,.095,0;2.31,-.1319,0;6.8862,-.1319,0;7.7331,.095,0;7.5062,.9419,0;3.1951,-.905,0;6.001,-.905,0;

> <Formula>
C6 H14 O3

> <Mw>
134.1736

> <SMILES>
O(C([H])(C([H])([H])C([H])([H])[H])O[H])C([H])(C([H])([H])C([H])([H])[H])O[H]

> <CSID>
5020642

$$$$
