3035270
  -OEChem-11211701432D

 34 34  0     0  0  0  0  0  0999 V2000
    5.1350    2.3450    0.0000 O   0  0  0  0  0  0  0  0  0  0  0  0
    2.5369   -2.1550    0.0000 O   0  0  0  0  0  0  0  0  0  0  0  0
    6.0010    2.8450    0.0000 O   0  0  0  0  0  0  0  0  0  0  0  0
    2.5369   -3.1550    0.0000 O   0  0  0  0  0  0  0  0  0  0  0  0
    5.1350    1.3450    0.0000 C   0  0  0  0  0  0  0  0  0  0  0  0
    3.4030   -1.6550    0.0000 C   0  0  0  0  0  0  0  0  0  0  0  0
    5.1350    0.3450    0.0000 C   0  0  0  0  0  0  0  0  0  0  0  0
    4.2690   -1.1550    0.0000 C   0  0  0  0  0  0  0  0  0  0  0  0
    4.2690   -0.1550    0.0000 C   0  0  0  0  0  0  0  0  0  0  0  0
    6.1350    1.3450    0.0000 C   0  0  0  0  0  0  0  0  0  0  0  0
    4.1350    1.3450    0.0000 C   0  0  0  0  0  0  0  0  0  0  0  0
    3.9030   -2.5210    0.0000 C   0  0  0  0  0  0  0  0  0  0  0  0
    2.9030   -0.7890    0.0000 C   0  0  0  0  0  0  0  0  0  0  0  0
    6.0010   -0.1550    0.0000 C   0  0  0  0  0  0  0  0  0  0  0  0
    5.1350   -1.6550    0.0000 C   0  0  0  0  0  0  0  0  0  0  0  0
    6.0010   -1.1550    0.0000 C   0  0  0  0  0  0  0  0  0  0  0  0
    3.7320    0.1550    0.0000 H   0  0  0  0  0  0  0  0  0  0  0  0
    6.1350    0.7250    0.0000 H   0  0  0  0  0  0  0  0  0  0  0  0
    6.7550    1.3450    0.0000 H   0  0  0  0  0  0  0  0  0  0  0  0
    6.1350    1.9650    0.0000 H   0  0  0  0  0  0  0  0  0  0  0  0
    4.1350    1.9650    0.0000 H   0  0  0  0  0  0  0  0  0  0  0  0
    3.5150    1.3450    0.0000 H   0  0  0  0  0  0  0  0  0  0  0  0
    4.1350    0.7250    0.0000 H   0  0  0  0  0  0  0  0  0  0  0  0
    3.3660   -2.8310    0.0000 H   0  0  0  0  0  0  0  0  0  0  0  0
    4.2130   -3.0580    0.0000 H   0  0  0  0  0  0  0  0  0  0  0  0
    4.4399   -2.2110    0.0000 H   0  0  0  0  0  0  0  0  0  0  0  0
    3.4399   -0.4790    0.0000 H   0  0  0  0  0  0  0  0  0  0  0  0
    2.5930   -0.2520    0.0000 H   0  0  0  0  0  0  0  0  0  0  0  0
    2.3660   -1.0990    0.0000 H   0  0  0  0  0  0  0  0  0  0  0  0
    6.5380    0.1550    0.0000 H   0  0  0  0  0  0  0  0  0  0  0  0
    5.1350   -2.2750    0.0000 H   0  0  0  0  0  0  0  0  0  0  0  0
    6.5380   -1.4650    0.0000 H   0  0  0  0  0  0  0  0  0  0  0  0
    6.0010    3.4650    0.0000 H   0  0  0  0  0  0  0  0  0  0  0  0
    2.0000   -3.4650    0.0000 H   0  0  0  0  0  0  0  0  0  0  0  0
  1  3  1  0  0  0  0
  1  5  1  0  0  0  0
  2  4  1  0  0  0  0
  2  6  1  0  0  0  0
  3 33  1  0  0  0  0
  4 34  1  0  0  0  0
  5  7  1  0  0  0  0
  5 10  1  0  0  0  0
  5 11  1  0  0  0  0
  6  8  1  0  0  0  0
  6 12  1  0  0  0  0
  6 13  1  0  0  0  0
  7  9  2  0  0  0  0
  7 14  1  0  0  0  0
  8  9  1  0  0  0  0
  8 15  2  0  0  0  0
  9 17  1  0  0  0  0
 10 18  1  0  0  0  0
 10 19  1  0  0  0  0
 10 20  1  0  0  0  0
 11 21  1  0  0  0  0
 11 22  1  0  0  0  0
 11 23  1  0  0  0  0
 12 24  1  0  0  0  0
 12 25  1  0  0  0  0
 12 26  1  0  0  0  0
 13 27  1  0  0  0  0
 13 28  1  0  0  0  0
 13 29  1  0  0  0  0
 14 16  2  0  0  0  0
 14 30  1  0  0  0  0
 15 16  1  0  0  0  0
 15 31  1  0  0  0  0
 16 32  1  0  0  0  0
M  END
> <PUBCHEM_COMPOUND_CID>
3035270

> <PUBCHEM_COMPOUND_CANONICALIZED>
1

> <PUBCHEM_CACTVS_COMPLEXITY>
203

> <PUBCHEM_CACTVS_HBOND_ACCEPTOR>
4

> <PUBCHEM_CACTVS_HBOND_DONOR>
2

> <PUBCHEM_CACTVS_ROTATABLE_BOND>
4

> <PUBCHEM_CACTVS_SUBSKEYS>
AAADceBwOAAAAAAAAAAAAAAAAAAAAAAAAAAwAAAAAAAAAAABAAAAGgAADAAADESAmAAyAIAAAACAAiBCAAACAAAgAAAIiAAACIgIJiKAERCAMAAkwAEIiAeA4PQOgAACAAAAAAAAAAQAAAAAAAAAAAAAAA==

> <PUBCHEM_IUPAC_OPENEYE_NAME>
1,3-bis(1-hydroperoxy-1-methyl-ethyl)benzene

> <PUBCHEM_IUPAC_CAS_NAME>
1,3-bis(2-hydroperoxypropan-2-yl)benzene

> <PUBCHEM_IUPAC_NAME>
1,3-bis(2-hydroperoxypropan-2-yl)benzene

> <PUBCHEM_IUPAC_SYSTEMATIC_NAME>
1,3-bis[2-(dioxidanyl)propan-2-yl]benzene

> <PUBCHEM_IUPAC_TRADITIONAL_NAME>
1,3-bis(1-hydroperoxy-1-methyl-ethyl)benzene

> <PUBCHEM_IUPAC_INCHI>
InChI=1S/C12H18O4/c1-11(2,15-13)9-6-5-7-10(8-9)12(3,4)16-14/h5-8,13-14H,1-4H3

> <PUBCHEM_IUPAC_INCHIKEY>
IROSBXFYXRIPRU-UHFFFAOYSA-N

> <PUBCHEM_XLOGP3_AA>
1.4

> <PUBCHEM_EXACT_MASS>
226.121

> <PUBCHEM_MOLECULAR_FORMULA>
C12H18O4

> <PUBCHEM_MOLECULAR_WEIGHT>
226.272

> <PUBCHEM_OPENEYE_CAN_SMILES>
CC(C)(C1=CC(=CC=C1)C(C)(C)OO)OO

> <PUBCHEM_OPENEYE_ISO_SMILES>
CC(C)(C1=CC(=CC=C1)C(C)(C)OO)OO

> <PUBCHEM_CACTVS_TPSA>
58.9

> <PUBCHEM_MONOISOTOPIC_WEIGHT>
226.121

> <PUBCHEM_TOTAL_CHARGE>
0

> <PUBCHEM_HEAVY_ATOM_COUNT>
16

> <PUBCHEM_ATOM_DEF_STEREO_COUNT>
0

> <PUBCHEM_ATOM_UDEF_STEREO_COUNT>
0

> <PUBCHEM_BOND_DEF_STEREO_COUNT>
0

> <PUBCHEM_BOND_UDEF_STEREO_COUNT>
0

> <PUBCHEM_ISOTOPIC_ATOM_COUNT>
0

> <PUBCHEM_COMPONENT_COUNT>
1

> <PUBCHEM_CACTVS_TAUTO_COUNT>
1

> <PUBCHEM_COORDINATE_TYPE>
1
5
255

> <PUBCHEM_BONDANNOTATIONS>
14  16  8
15  16  8
7  14  8
7  9  8
8  15  8
8  9  8

$$$$
