73555271
  -OEChem-11231701372D

201211  0     1  0  0  0  0  0999 V2000
   14.7543   -4.4380    0.0000 O   0  0  0  0  0  0  0  0  0  0  0  0
   17.4638   -5.8786    0.0000 O   0  0  0  0  0  0  0  0  0  0  0  0
   14.4683   -0.7444    0.0000 O   0  0  0  0  0  0  0  0  0  0  0  0
   11.5323   -6.2663    0.0000 O   0  0  0  0  0  0  0  0  0  0  0  0
   13.9387   -8.7581    0.0000 O   0  0  0  0  0  0  0  0  0  0  0  0
   16.3477   -0.0604    0.0000 O   0  0  0  0  0  0  0  0  0  0  0  0
   12.0162   -8.2069    0.0000 O   0  0  0  0  0  0  0  0  0  0  0  0
   18.4008    1.6085    0.0000 O   0  0  0  0  0  0  0  0  0  0  0  0
   17.8798   -1.3459    0.0000 O   0  0  0  0  0  0  0  0  0  0  0  0
   14.0496    1.8680    0.0000 O   0  0  0  0  0  0  0  0  0  0  0  0
   14.3969    3.8376    0.0000 O   0  0  0  0  0  0  0  0  0  0  0  0
   16.2763    4.5217    0.0000 O   0  0  0  0  0  0  0  0  0  0  0  0
    7.8133    3.0329    0.0000 O   0  0  0  0  0  0  0  0  0  0  0  0
   20.2801    2.2925    0.0000 O   0  0  0  0  0  0  0  0  0  0  0  0
   12.3969    3.8376    0.0000 O   0  0  0  0  0  0  0  0  0  0  0  0
    7.4561    6.3372    0.0000 O   0  0  0  0  0  0  0  0  0  0  0  0
    6.0010    1.8376    0.0000 O   0  0  0  0  0  0  0  0  0  0  0  0
   21.2913   -1.9475    0.0000 O   0  0  0  0  0  0  0  0  0  0  0  0
    4.2690    5.8376    0.0000 O   0  0  0  0  0  0  0  0  0  0  0  0
   23.1707   -1.2634    0.0000 O   0  0  0  0  0  0  0  0  0  0  0  0
   11.3969    2.1056    0.0000 O   0  0  0  0  0  0  0  0  0  0  0  0
    2.5369    4.8376    0.0000 O   0  0  0  0  0  0  0  0  0  0  0  0
   12.8969    6.4357    0.0000 O   0  0  0  0  0  0  0  0  0  0  0  0
   23.5180    0.7062    0.0000 O   0  0  0  0  0  0  0  0  0  0  0  0
   13.8969    8.1678    0.0000 O   0  0  0  0  0  0  0  0  0  0  0  0
   15.8969    8.1678    0.0000 O   0  0  0  0  0  0  0  0  0  0  0  0
   24.7028   -2.5490    0.0000 O   0  0  0  0  0  0  0  0  0  0  0  0
   29.4012   -0.8389    0.0000 O   0  0  0  0  0  0  0  0  0  0  0  0
   15.8783   -5.6019    0.0000 C   0  0  3  0  0  0  0  0  0  0  0  0
   16.3478   -4.7189    0.0000 C   0  0  3  0  0  0  0  0  0  0  0  0
   14.8935   -5.4282    0.0000 C   0  0  3  0  0  0  0  0  0  0  0  0
   15.6531   -3.9996    0.0000 C   0  0  3  0  0  0  0  0  0  0  0  0
   16.5707   -6.3152    0.0000 C   0  0  0  0  0  0  0  0  0  0  0  0
   17.3263   -4.8941    0.0000 C   0  0  0  0  0  0  0  0  0  0  0  0
   14.1742   -6.1229    0.0000 C   0  0  0  0  0  0  0  0  0  0  0  0
   15.8268   -3.0148    0.0000 C   0  0  0  0  0  0  0  0  0  0  0  0
   15.0607   -2.3720    0.0000 C   0  0  0  0  0  0  0  0  0  0  0  0
   14.4161   -7.0932    0.0000 C   0  0  0  0  0  0  0  0  0  0  0  0
   13.2129   -5.8472    0.0000 C   0  0  0  0  0  0  0  0  0  0  0  0
   16.7665   -2.6728    0.0000 C   0  0  0  0  0  0  0  0  0  0  0  0
   15.2344   -1.3872    0.0000 C   0  0  0  0  0  0  0  0  0  0  0  0
   12.4936   -6.5419    0.0000 C   0  0  0  0  0  0  0  0  0  0  0  0
   13.6968   -7.7878    0.0000 C   0  0  0  0  0  0  0  0  0  0  0  0
   16.9401   -1.6880    0.0000 C   0  0  0  0  0  0  0  0  0  0  0  0
   16.1741   -1.0452    0.0000 C   0  0  0  0  0  0  0  0  0  0  0  0
   12.7355   -7.5122    0.0000 C   0  0  0  0  0  0  0  0  0  0  0  0
   17.2874    0.2817    0.0000 C   0  0  3  0  0  0  0  0  0  0  0  0
   13.5287   -1.0864    0.0000 C   0  0  0  0  0  0  0  0  0  0  0  0
   10.8130   -6.9609    0.0000 C   0  0  0  0  0  0  0  0  0  0  0  0
   14.8999   -9.0338    0.0000 C   0  0  0  0  0  0  0  0  0  0  0  0
   17.4611    1.2665    0.0000 C   0  0  3  0  0  0  0  0  0  0  0  0
   18.0535   -0.3611    0.0000 C   0  0  0  0  0  0  0  0  0  0  0  0
   16.6950    1.9093    0.0000 C   0  0  0  0  0  0  0  0  0  0  0  0
   15.7553    1.5672    0.0000 C   0  0  0  0  0  0  0  0  0  0  0  0
   16.8687    2.8941    0.0000 C   0  0  0  0  0  0  0  0  0  0  0  0
   19.1668    0.9657    0.0000 C   0  0  0  0  0  0  0  0  0  0  0  0
   14.9893    2.2100    0.0000 C   0  0  0  0  0  0  0  0  0  0  0  0
   16.1026    3.5368    0.0000 C   0  0  0  0  0  0  0  0  0  0  0  0
   15.1629    3.1948    0.0000 C   0  0  0  0  0  0  0  0  0  0  0  0
   20.1065    1.3077    0.0000 C   0  0  0  0  0  0  0  0  0  0  0  0
   18.9932   -0.0191    0.0000 C   0  0  0  0  0  0  0  0  0  0  0  0
    7.8133    4.6424    0.0000 C   0  0  3  0  0  0  0  0  0  0  0  0
    8.3969    3.8376    0.0000 C   0  0  3  0  0  0  0  0  0  0  0  0
    6.8671    4.3376    0.0000 C   0  0  0  0  0  0  0  0  0  0  0  0
   20.8725    0.6649    0.0000 C   0  0  0  0  0  0  0  0  0  0  0  0
   19.7592   -0.6619    0.0000 C   0  0  0  0  0  0  0  0  0  0  0  0
   20.6989   -0.3199    0.0000 C   0  0  0  0  0  0  0  0  0  0  0  0
    6.8671    3.3376    0.0000 C   0  0  0  0  0  0  0  0  0  0  0  0
   13.8969    4.7036    0.0000 C   0  0  3  0  0  0  0  0  0  0  0  0
    8.1240    5.5929    0.0000 C   0  0  0  0  0  0  0  0  0  0  0  0
    9.3969    3.8376    0.0000 C   0  0  0  0  0  0  0  0  0  0  0  0
    6.0010    4.8376    0.0000 C   0  0  0  0  0  0  0  0  0  0  0  0
   12.8969    4.7036    0.0000 C   0  0  3  0  0  0  0  0  0  0  0  0
   21.4649   -0.9627    0.0000 C   0  0  3  0  0  0  0  0  0  0  0  0
    5.1350    4.3376    0.0000 C   0  0  0  0  0  0  0  0  0  0  0  0
    6.0010    2.8376    0.0000 C   0  0  0  0  0  0  0  0  0  0  0  0
   13.8759    0.8832    0.0000 C   0  0  0  0  0  0  0  0  0  0  0  0
    5.1350    3.3376    0.0000 C   0  0  0  0  0  0  0  0  0  0  0  0
    4.2690    4.8376    0.0000 C   0  0  3  0  0  0  0  0  0  0  0  0
   14.3969    5.5697    0.0000 C   0  0  0  0  0  0  0  0  0  0  0  0
    9.8969    2.9716    0.0000 C   0  0  0  0  0  0  0  0  0  0  0  0
    9.8969    4.7036    0.0000 C   0  0  0  0  0  0  0  0  0  0  0  0
   22.4046   -0.6206    0.0000 C   0  0  3  0  0  0  0  0  0  0  0  0
   11.3969    3.8376    0.0000 C   0  0  0  0  0  0  0  0  0  0  0  0
   10.8969    2.9716    0.0000 C   0  0  0  0  0  0  0  0  0  0  0  0
   12.3969    5.5697    0.0000 C   0  0  0  0  0  0  0  0  0  0  0  0
   21.2198    2.6346    0.0000 C   0  0  0  0  0  0  0  0  0  0  0  0
    3.4030    4.3376    0.0000 C   0  0  3  0  0  0  0  0  0  0  0  0
   10.8969    4.7036    0.0000 C   0  0  0  0  0  0  0  0  0  0  0  0
   13.8969    6.4357    0.0000 C   0  0  0  0  0  0  0  0  0  0  0  0
   15.3969    5.5697    0.0000 C   0  0  0  0  0  0  0  0  0  0  0  0
   22.5783    0.3642    0.0000 C   0  0  0  0  0  0  0  0  0  0  0  0
    3.4030    3.3376    0.0000 C   0  0  0  0  0  0  0  0  0  0  0  0
   14.3969    7.3017    0.0000 C   0  0  0  0  0  0  0  0  0  0  0  0
    5.1350    1.3376    0.0000 C   0  0  0  0  0  0  0  0  0  0  0  0
   15.8969    6.4357    0.0000 C   0  0  0  0  0  0  0  0  0  0  0  0
   15.3969    7.3017    0.0000 C   0  0  0  0  0  0  0  0  0  0  0  0
   24.1104   -0.9214    0.0000 C   0  0  0  0  0  0  0  0  0  0  0  0
   10.8969    1.2395    0.0000 C   0  0  0  0  0  0  0  0  0  0  0  0
   24.8764   -1.5642    0.0000 C   0  0  0  0  0  0  0  0  0  0  0  0
   24.2840    0.0634    0.0000 C   0  0  0  0  0  0  0  0  0  0  0  0
   14.3969    9.0338    0.0000 C   0  0  0  0  0  0  0  0  0  0  0  0
   25.8161   -1.2222    0.0000 C   0  0  0  0  0  0  0  0  0  0  0  0
   25.2237    0.4054    0.0000 C   0  0  0  0  0  0  0  0  0  0  0  0
   25.9898   -0.2374    0.0000 C   0  0  0  0  0  0  0  0  0  0  0  0
   26.9294    0.1047    0.0000 C   0  0  0  0  0  0  0  0  0  0  0  0
   25.4688   -3.1918    0.0000 C   0  0  0  0  0  0  0  0  0  0  0  0
   27.6955   -0.5381    0.0000 C   0  0  0  0  0  0  0  0  0  0  0  0
   28.6352   -0.1961    0.0000 C   0  0  0  0  0  0  0  0  0  0  0  0
   15.5880   -6.1497    0.0000 H   0  0  0  0  0  0  0  0  0  0  0  0
   16.6396   -4.1719    0.0000 H   0  0  0  0  0  0  0  0  0  0  0  0
   14.3073   -5.2264    0.0000 H   0  0  0  0  0  0  0  0  0  0  0  0
   15.1580   -3.6265    0.0000 H   0  0  0  0  0  0  0  0  0  0  0  0
   16.0829   -6.6979    0.0000 H   0  0  0  0  0  0  0  0  0  0  0  0
   16.9000   -6.8405    0.0000 H   0  0  0  0  0  0  0  0  0  0  0  0
   17.9460   -4.8733    0.0000 H   0  0  0  0  0  0  0  0  0  0  0  0
   17.3708   -4.2757    0.0000 H   0  0  0  0  0  0  0  0  0  0  0  0
   14.4781   -2.5840    0.0000 H   0  0  0  0  0  0  0  0  0  0  0  0
   15.0121   -7.2641    0.0000 H   0  0  0  0  0  0  0  0  0  0  0  0
   13.0629   -5.2457    0.0000 H   0  0  0  0  0  0  0  0  0  0  0  0
   17.2414   -3.0713    0.0000 H   0  0  0  0  0  0  0  0  0  0  0  0
   17.5227   -1.4759    0.0000 H   0  0  0  0  0  0  0  0  0  0  0  0
   12.1661   -8.8084    0.0000 H   0  0  0  0  0  0  0  0  0  0  0  0
   17.1798   -0.3289    0.0000 H   0  0  0  0  0  0  0  0  0  0  0  0
   13.3166   -0.5038    0.0000 H   0  0  0  0  0  0  0  0  0  0  0  0
   12.9460   -1.2985    0.0000 H   0  0  0  0  0  0  0  0  0  0  0  0
   13.7407   -1.6690    0.0000 H   0  0  0  0  0  0  0  0  0  0  0  0
   10.3823   -6.5149    0.0000 H   0  0  0  0  0  0  0  0  0  0  0  0
   10.3670   -7.3916    0.0000 H   0  0  0  0  0  0  0  0  0  0  0  0
   11.2437   -7.4069    0.0000 H   0  0  0  0  0  0  0  0  0  0  0  0
   14.7290   -9.6298    0.0000 H   0  0  0  0  0  0  0  0  0  0  0  0
   15.4959   -9.2047    0.0000 H   0  0  0  0  0  0  0  0  0  0  0  0
   15.0708   -8.4378    0.0000 H   0  0  0  0  0  0  0  0  0  0  0  0
   17.5687    1.8770    0.0000 H   0  0  0  0  0  0  0  0  0  0  0  0
   18.6361   -0.5732    0.0000 H   0  0  0  0  0  0  0  0  0  0  0  0
   18.3635    0.1758    0.0000 H   0  0  0  0  0  0  0  0  0  0  0  0
   18.3548   -1.7445    0.0000 H   0  0  0  0  0  0  0  0  0  0  0  0
   15.6477    0.9567    0.0000 H   0  0  0  0  0  0  0  0  0  0  0  0
   17.4513    3.1061    0.0000 H   0  0  0  0  0  0  0  0  0  0  0  0
   18.4105   -0.2312    0.0000 H   0  0  0  0  0  0  0  0  0  0  0  0
    7.3758    5.0817    0.0000 H   0  0  0  0  0  0  0  0  0  0  0  0
    8.6786    3.2853    0.0000 H   0  0  0  0  0  0  0  0  0  0  0  0
   21.4552    0.8770    0.0000 H   0  0  0  0  0  0  0  0  0  0  0  0
   19.6515   -1.2725    0.0000 H   0  0  0  0  0  0  0  0  0  0  0  0
   16.8589    4.7337    0.0000 H   0  0  0  0  0  0  0  0  0  0  0  0
   14.5169    4.7036    0.0000 H   0  0  0  0  0  0  0  0  0  0  0  0
    8.6709    5.3008    0.0000 H   0  0  0  0  0  0  0  0  0  0  0  0
    8.5065    6.0808    0.0000 H   0  0  0  0  0  0  0  0  0  0  0  0
    6.0010    5.4576    0.0000 H   0  0  0  0  0  0  0  0  0  0  0  0
   12.2769    4.7036    0.0000 H   0  0  0  0  0  0  0  0  0  0  0  0
   20.8823   -1.1747    0.0000 H   0  0  0  0  0  0  0  0  0  0  0  0
    4.5981    3.0276    0.0000 H   0  0  0  0  0  0  0  0  0  0  0  0
    4.8059    5.1476    0.0000 H   0  0  0  0  0  0  0  0  0  0  0  0
   13.2654    0.9909    0.0000 H   0  0  0  0  0  0  0  0  0  0  0  0
   13.7683    0.2726    0.0000 H   0  0  0  0  0  0  0  0  0  0  0  0
   14.4865    0.7755    0.0000 H   0  0  0  0  0  0  0  0  0  0  0  0
    9.5869    2.4347    0.0000 H   0  0  0  0  0  0  0  0  0  0  0  0
    9.5869    5.2406    0.0000 H   0  0  0  0  0  0  0  0  0  0  0  0
   22.2970   -1.2312    0.0000 H   0  0  0  0  0  0  0  0  0  0  0  0
    3.4030    4.9576    0.0000 H   0  0  0  0  0  0  0  0  0  0  0  0
   11.9219    5.9682    0.0000 H   0  0  0  0  0  0  0  0  0  0  0  0
   11.9219    5.1711    0.0000 H   0  0  0  0  0  0  0  0  0  0  0  0
   21.4319    2.0519    0.0000 H   0  0  0  0  0  0  0  0  0  0  0  0
   21.8024    2.8466    0.0000 H   0  0  0  0  0  0  0  0  0  0  0  0
   21.0078    3.2172    0.0000 H   0  0  0  0  0  0  0  0  0  0  0  0
   11.2069    5.2406    0.0000 H   0  0  0  0  0  0  0  0  0  0  0  0
    7.6487    6.9265    0.0000 H   0  0  0  0  0  0  0  0  0  0  0  0
   13.2769    6.4357    0.0000 H   0  0  0  0  0  0  0  0  0  0  0  0
   15.7069    5.0327    0.0000 H   0  0  0  0  0  0  0  0  0  0  0  0
   21.7662   -2.3460    0.0000 H   0  0  0  0  0  0  0  0  0  0  0  0
   22.4706    0.9747    0.0000 H   0  0  0  0  0  0  0  0  0  0  0  0
   21.9583    0.3642    0.0000 H   0  0  0  0  0  0  0  0  0  0  0  0
    2.7830    3.3376    0.0000 H   0  0  0  0  0  0  0  0  0  0  0  0
    3.4030    2.7176    0.0000 H   0  0  0  0  0  0  0  0  0  0  0  0
    4.0230    3.3376    0.0000 H   0  0  0  0  0  0  0  0  0  0  0  0
    3.7320    6.1476    0.0000 H   0  0  0  0  0  0  0  0  0  0  0  0
    4.8250    1.8746    0.0000 H   0  0  0  0  0  0  0  0  0  0  0  0
    4.5981    1.0276    0.0000 H   0  0  0  0  0  0  0  0  0  0  0  0
    5.4450    0.8007    0.0000 H   0  0  0  0  0  0  0  0  0  0  0  0
    2.0000    4.5276    0.0000 H   0  0  0  0  0  0  0  0  0  0  0  0
   16.5169    6.4357    0.0000 H   0  0  0  0  0  0  0  0  0  0  0  0
   12.5869    6.9726    0.0000 H   0  0  0  0  0  0  0  0  0  0  0  0
   10.3600    1.5495    0.0000 H   0  0  0  0  0  0  0  0  0  0  0  0
   10.5869    0.7026    0.0000 H   0  0  0  0  0  0  0  0  0  0  0  0
   11.4338    0.9295    0.0000 H   0  0  0  0  0  0  0  0  0  0  0  0
   23.6256    1.3168    0.0000 H   0  0  0  0  0  0  0  0  0  0  0  0
   23.8091    0.4619    0.0000 H   0  0  0  0  0  0  0  0  0  0  0  0
   16.5169    8.1678    0.0000 H   0  0  0  0  0  0  0  0  0  0  0  0
   14.9338    8.7238    0.0000 H   0  0  0  0  0  0  0  0  0  0  0  0
   14.7069    9.5707    0.0000 H   0  0  0  0  0  0  0  0  0  0  0  0
   13.8600    9.3438    0.0000 H   0  0  0  0  0  0  0  0  0  0  0  0
   26.2911   -1.6207    0.0000 H   0  0  0  0  0  0  0  0  0  0  0  0
   25.3314    1.0160    0.0000 H   0  0  0  0  0  0  0  0  0  0  0  0
   27.0371    0.7152    0.0000 H   0  0  0  0  0  0  0  0  0  0  0  0
   25.0703   -3.6667    0.0000 H   0  0  0  0  0  0  0  0  0  0  0  0
   25.9438   -3.5903    0.0000 H   0  0  0  0  0  0  0  0  0  0  0  0
   25.8673   -2.7168    0.0000 H   0  0  0  0  0  0  0  0  0  0  0  0
   27.5878   -1.1487    0.0000 H   0  0  0  0  0  0  0  0  0  0  0  0
   29.1101    0.2024    0.0000 H   0  0  0  0  0  0  0  0  0  0  0  0
   28.3252    0.3408    0.0000 H   0  0  0  0  0  0  0  0  0  0  0  0
   29.9838   -0.6268    0.0000 H   0  0  0  0  0  0  0  0  0  0  0  0
  1 31  1  0  0  0  0
  1 32  1  0  0  0  0
  2 33  1  0  0  0  0
  2 34  1  0  0  0  0
  3 41  1  0  0  0  0
  3 48  1  0  0  0  0
  4 42  1  0  0  0  0
  4 49  1  0  0  0  0
  5 43  1  0  0  0  0
  5 50  1  0  0  0  0
  6 45  1  0  0  0  0
  6 47  1  0  0  0  0
  7 46  1  0  0  0  0
  7123  1  0  0  0  0
  8 51  1  0  0  0  0
  8 56  1  0  0  0  0
  9 52  1  0  0  0  0
  9137  1  0  0  0  0
 10 57  1  0  0  0  0
 10 77  1  0  0  0  0
 11 59  1  0  0  0  0
 11 69  1  0  0  0  0
 12 58  1  0  0  0  0
 12145  1  0  0  0  0
 13 63  1  0  0  0  0
 13 68  1  0  0  0  0
 14 60  1  0  0  0  0
 14 87  1  0  0  0  0
 15 73  1  0  0  0  0
 15 84  1  0  0  0  0
 16 70  1  0  0  0  0
 16167  1  0  0  0  0
 17 76  1  0  0  0  0
 17 95  1  0  0  0  0
 18 74  1  0  0  0  0
 18170  1  0  0  0  0
 19 79  1  0  0  0  0
 19176  1  0  0  0  0
 20 83  1  0  0  0  0
 20 98  1  0  0  0  0
 21 85  1  0  0  0  0
 21 99  1  0  0  0  0
 22 88  1  0  0  0  0
 22180  1  0  0  0  0
 23 86  1  0  0  0  0
 23182  1  0  0  0  0
 24 92  1  0  0  0  0
 24186  1  0  0  0  0
 25 94  1  0  0  0  0
 25102  1  0  0  0  0
 26 97  1  0  0  0  0
 26188  1  0  0  0  0
 27100  1  0  0  0  0
 27107  1  0  0  0  0
 28109  1  0  0  0  0
 28201  1  0  0  0  0
 29 30  1  0  0  0  0
 29 31  1  0  0  0  0
 29 33  1  0  0  0  0
 29110  1  0  0  0  0
 30 32  1  0  0  0  0
 30 34  1  0  0  0  0
 30111  1  0  0  0  0
 31 35  1  0  0  0  0
 31112  1  0  0  0  0
 32 36  1  0  0  0  0
 32113  1  0  0  0  0
 33114  1  0  0  0  0
 33115  1  0  0  0  0
 34116  1  0  0  0  0
 34117  1  0  0  0  0
 35 38  2  0  0  0  0
 35 39  1  0  0  0  0
 36 37  2  0  0  0  0
 36 40  1  0  0  0  0
 37 41  1  0  0  0  0
 37118  1  0  0  0  0
 38 43  1  0  0  0  0
 38119  1  0  0  0  0
 39 42  2  0  0  0  0
 39120  1  0  0  0  0
 40 44  2  0  0  0  0
 40121  1  0  0  0  0
 41 45  2  0  0  0  0
 42 46  1  0  0  0  0
 43 46  2  0  0  0  0
 44 45  1  0  0  0  0
 44122  1  0  0  0  0
 47 51  1  0  0  0  0
 47 52  1  0  0  0  0
 47124  1  0  0  0  0
 48125  1  0  0  0  0
 48126  1  0  0  0  0
 48127  1  0  0  0  0
 49128  1  0  0  0  0
 49129  1  0  0  0  0
 49130  1  0  0  0  0
 50131  1  0  0  0  0
 50132  1  0  0  0  0
 50133  1  0  0  0  0
 51 53  1  0  0  0  0
 51134  1  0  0  0  0
 52135  1  0  0  0  0
 52136  1  0  0  0  0
 53 54  1  0  0  0  0
 53 55  2  0  0  0  0
 54 57  2  0  0  0  0
 54138  1  0  0  0  0
 55 58  1  0  0  0  0
 55139  1  0  0  0  0
 56 60  2  0  0  0  0
 56 61  1  0  0  0  0
 57 59  1  0  0  0  0
 58 59  2  0  0  0  0
 60 65  1  0  0  0  0
 61 66  2  0  0  0  0
 61140  1  0  0  0  0
 62 63  1  0  0  0  0
 62 64  1  0  0  0  0
 62 70  1  0  0  0  0
 62141  1  0  0  0  0
 63 71  1  0  0  0  0
 63142  1  0  0  0  0
 64 68  2  0  0  0  0
 64 72  1  0  0  0  0
 65 67  2  0  0  0  0
 65143  1  0  0  0  0
 66 67  1  0  0  0  0
 66144  1  0  0  0  0
 67 74  1  0  0  0  0
 68 76  1  0  0  0  0
 69 73  1  0  0  0  0
 69 80  1  0  0  0  0
 69146  1  0  0  0  0
 70147  1  0  0  0  0
 70148  1  0  0  0  0
 71 81  2  0  0  0  0
 71 82  1  0  0  0  0
 72 75  2  0  0  0  0
 72149  1  0  0  0  0
 73 86  1  0  0  0  0
 73150  1  0  0  0  0
 74 83  1  0  0  0  0
 74151  1  0  0  0  0
 75 78  1  0  0  0  0
 75 79  1  0  0  0  0
 76 78  2  0  0  0  0
 77154  1  0  0  0  0
 77155  1  0  0  0  0
 77156  1  0  0  0  0
 78152  1  0  0  0  0
 79 88  1  0  0  0  0
 79153  1  0  0  0  0
 80 90  2  0  0  0  0
 80 91  1  0  0  0  0
 81 85  1  0  0  0  0
 81157  1  0  0  0  0
 82 89  2  0  0  0  0
 82158  1  0  0  0  0
 83 92  1  0  0  0  0
 83159  1  0  0  0  0
 84 85  2  0  0  0  0
 84 89  1  0  0  0  0
 86161  1  0  0  0  0
 86162  1  0  0  0  0
 87163  1  0  0  0  0
 87164  1  0  0  0  0
 87165  1  0  0  0  0
 88 93  1  0  0  0  0
 88160  1  0  0  0  0
 89166  1  0  0  0  0
 90 94  1  0  0  0  0
 90168  1  0  0  0  0
 91 96  2  0  0  0  0
 91169  1  0  0  0  0
 92171  1  0  0  0  0
 92172  1  0  0  0  0
 93173  1  0  0  0  0
 93174  1  0  0  0  0
 93175  1  0  0  0  0
 94 97  2  0  0  0  0
 95177  1  0  0  0  0
 95178  1  0  0  0  0
 95179  1  0  0  0  0
 96 97  1  0  0  0  0
 96181  1  0  0  0  0
 98100  2  0  0  0  0
 98101  1  0  0  0  0
 99183  1  0  0  0  0
 99184  1  0  0  0  0
 99185  1  0  0  0  0
100103  1  0  0  0  0
101104  2  0  0  0  0
101187  1  0  0  0  0
102189  1  0  0  0  0
102190  1  0  0  0  0
102191  1  0  0  0  0
103105  2  0  0  0  0
103192  1  0  0  0  0
104105  1  0  0  0  0
104193  1  0  0  0  0
105106  1  0  0  0  0
106108  2  3  0  0  0
106194  1  0  0  0  0
107195  1  0  0  0  0
107196  1  0  0  0  0
107197  1  0  0  0  0
108109  1  0  0  0  0
108198  1  0  0  0  0
109199  1  0  0  0  0
109200  1  0  0  0  0
M  END
> <PUBCHEM_COMPOUND_CID>
73555271

> <PUBCHEM_COMPOUND_CANONICALIZED>
1

> <PUBCHEM_CACTVS_COMPLEXITY>
2640

> <PUBCHEM_CACTVS_HBOND_ACCEPTOR>
28

> <PUBCHEM_CACTVS_HBOND_DONOR>
11

> <PUBCHEM_CACTVS_ROTATABLE_BOND>
36

> <PUBCHEM_CACTVS_SUBSKEYS>
AAADcfB8PgAAAAAAAAAAAAAAAAAAASJEgAAwYMGDAAASAEgBVAAAGgAACAAADRSgmAIyBoAABgCAAiBCAAACCAAgIAAIiAAGiIgNNyKGMRqCeCOlwBULuAfA4PwOoAADCAAIQABAAAYQABCAAAAAAAAAAA==

> <PUBCHEM_IUPAC_OPENEYE_NAME>
1-[4-[1-[4-[2-[4-[5-(1,2-dihydroxypropyl)-3-(hydroxymethyl)-7-methoxy-2,3-dihydrobenzofuran-2-yl]-2-methoxy-phenoxy]-3-hydroxy-1-(4-hydroxy-3-methoxy-phenyl)propoxy]-3-hydroxy-5-methoxy-phenyl]-3-hydroxy-2-[4-[4-(4-hydroxy-3,5-dimethoxy-phenyl)-1,3,3a,4,6,6a-hexahydrofuro[3,4-c]furan-6-yl]-2-methoxy-phenoxy]propoxy]-3-methoxy-phenyl]-2-[4-(3-hydroxyprop-1-enyl)-2-methoxy-phenoxy]propane-1,3-diol

> <PUBCHEM_IUPAC_CAS_NAME>
1-[4-[1-[4-[2-[4-[5-(1,2-dihydroxypropyl)-3-(hydroxymethyl)-7-methoxy-2,3-dihydrobenzofuran-2-yl]-2-methoxyphenoxy]-3-hydroxy-1-(4-hydroxy-3-methoxyphenyl)propoxy]-3-hydroxy-5-methoxyphenyl]-3-hydroxy-2-[4-[4-(4-hydroxy-3,5-dimethoxyphenyl)-1,3,3a,4,6,6a-hexahydrofuro[3,4-c]furan-6-yl]-2-methoxyphenoxy]propoxy]-3-methoxyphenyl]-2-[4-(3-hydroxyprop-1-enyl)-2-methoxyphenoxy]propane-1,3-diol

> <PUBCHEM_IUPAC_NAME>
1-[4-[1-[4-[2-[4-[5-(1,2-dihydroxypropyl)-3-(hydroxymethyl)-7-methoxy-2,3-dihydro-1-benzofuran-2-yl]-2-methoxyphenoxy]-3-hydroxy-1-(4-hydroxy-3-methoxyphenyl)propoxy]-3-hydroxy-5-methoxyphenyl]-3-hydroxy-2-[4-[4-(4-hydroxy-3,5-dimethoxyphenyl)-1,3,3a,4,6,6a-hexahydrofuro[3,4-c]furan-6-yl]-2-methoxyphenoxy]propoxy]-3-methoxyphenyl]-2-[4-(3-hydroxyprop-1-enyl)-2-methoxyphenoxy]propane-1,3-diol

> <PUBCHEM_IUPAC_SYSTEMATIC_NAME>
1-[4-[1-[4-[2-[4-[5-[1,2-bis(oxidanyl)propyl]-3-(hydroxymethyl)-7-methoxy-2,3-dihydro-1-benzofuran-2-yl]-2-methoxy-phenoxy]-1-(3-methoxy-4-oxidanyl-phenyl)-3-oxidanyl-propoxy]-3-methoxy-5-oxidanyl-phenyl]-2-[4-[4-(3,5-dimethoxy-4-oxidanyl-phenyl)-1,3,3a,4,6,6a-hexahydrofuro[3,4-c]furan-6-yl]-2-methoxy-phenoxy]-3-oxidanyl-propoxy]-3-methoxy-phenyl]-2-[2-methoxy-4-(3-oxidanylprop-1-enyl)phenoxy]propane-1,3-diol

> <PUBCHEM_IUPAC_TRADITIONAL_NAME>
1-[4-[1-[4-[2-[4-[5-(1,2-dihydroxypropyl)-7-methoxy-3-methylol-coumaran-2-yl]-2-methoxy-phenoxy]-3-hydroxy-1-(4-hydroxy-3-methoxy-phenyl)propoxy]-3-hydroxy-5-methoxy-phenyl]-3-hydroxy-2-[4-[4-(4-hydroxy-3,5-dimethoxy-phenyl)-1,3,3a,4,6,6a-hexahydrofuro[3,4-c]furan-6-yl]-2-methoxy-phenoxy]propoxy]-3-methoxy-phenyl]-2-[4-(3-hydroxyprop-1-enyl)-2-methoxy-phenoxy]propane-1,3-diol

> <PUBCHEM_IUPAC_INCHI>
InChI=1S/C81H92O28/c1-41(87)72(90)47-25-50-51(35-83)75(108-80(50)67(31-47)100-9)44-16-21-57(63(29-44)96-5)104-70(37-85)78(46-14-18-54(88)60(28-46)93-2)109-81-55(89)26-48(34-68(81)101-10)79(106-59-20-15-43(27-62(59)95-4)73(91)69(36-84)103-56-19-13-42(12-11-23-82)24-61(56)94-3)71(38-86)105-58-22-17-45(30-64(58)97-6)76-52-39-102-40-53(52)77(107-76)49-32-65(98-7)74(92)66(33-49)99-8/h11-22,24-34,41,51-53,69-73,75-79,82-92H,23,35-40H2,1-10H3

> <PUBCHEM_IUPAC_INCHIKEY>
RWYKESRENLAKMN-UHFFFAOYSA-N

> <PUBCHEM_XLOGP3_AA>
6.3

> <PUBCHEM_EXACT_MASS>
1512.578

> <PUBCHEM_MOLECULAR_FORMULA>
C81H92O28

> <PUBCHEM_MOLECULAR_WEIGHT>
1513.599

> <PUBCHEM_OPENEYE_CAN_SMILES>
CC(C(C1=CC(=C2C(=C1)C(C(O2)C3=CC(=C(C=C3)OC(CO)C(C4=CC(=C(C=C4)O)OC)OC5=C(C=C(C=C5OC)C(C(CO)OC6=C(C=C(C=C6)C7C8COCC8C(O7)C9=CC(=C(C(=C9)OC)O)OC)OC)OC1=C(C=C(C=C1)C(C(CO)OC1=C(C=C(C=C1)C=CCO)OC)O)OC)O)OC)CO)OC)O)O

> <PUBCHEM_OPENEYE_ISO_SMILES>
CC(C(C1=CC(=C2C(=C1)C(C(O2)C3=CC(=C(C=C3)OC(CO)C(C4=CC(=C(C=C4)O)OC)OC5=C(C=C(C=C5OC)C(C(CO)OC6=C(C=C(C=C6)C7C8COCC8C(O7)C9=CC(=C(C(=C9)OC)O)OC)OC)OC1=C(C=C(C=C1)C(C(CO)OC1=C(C=C(C=C1)C=CCO)OC)O)OC)O)OC)CO)OC)O)O

> <PUBCHEM_CACTVS_TPSA>
379

> <PUBCHEM_MONOISOTOPIC_WEIGHT>
1512.578

> <PUBCHEM_TOTAL_CHARGE>
0

> <PUBCHEM_HEAVY_ATOM_COUNT>
109

> <PUBCHEM_ATOM_DEF_STEREO_COUNT>
0

> <PUBCHEM_ATOM_UDEF_STEREO_COUNT>
14

> <PUBCHEM_BOND_DEF_STEREO_COUNT>
0

> <PUBCHEM_BOND_UDEF_STEREO_COUNT>
1

> <PUBCHEM_ISOTOPIC_ATOM_COUNT>
0

> <PUBCHEM_COMPONENT_COUNT>
1

> <PUBCHEM_CACTVS_TAUTO_COUNT>
16

> <PUBCHEM_COORDINATE_TYPE>
1
5
255

> <PUBCHEM_BONDANNOTATIONS>
100  103  8
101  104  8
103  105  8
104  105  8
106  108  1
69  11  3
74  18  3
79  19  3
88  22  3
29  33  3
30  34  3
31  35  3
32  36  3
35  38  8
35  39  8
36  37  8
36  40  8
37  41  8
38  43  8
39  42  8
40  44  8
41  45  8
42  46  8
43  46  8
44  45  8
47  52  3
53  54  8
53  55  8
54  57  8
55  58  8
56  60  8
56  61  8
57  59  8
58  59  8
60  65  8
61  66  8
62  70  3
63  71  3
64  68  8
64  72  8
65  67  8
66  67  8
68  76  8
71  81  8
71  82  8
72  75  8
73  86  3
75  78  8
76  78  8
51  8  3
80  90  8
80  91  8
81  85  8
82  89  8
83  92  3
84  85  8
84  89  8
90  94  8
91  96  8
94  97  8
96  97  8
98  100  8
98  101  8

$$$$
