3082113
  -OEChem-10081713362D

  9  6  0     0  0  0  0  0  0999 V2000
    0.0000    1.6800    0.0000 Ag  0  3  0  0  0  0  0  0  0  0  0  0
    3.0369    0.6200    0.0000 N   0  0  0  0  0  0  0  0  0  0  0  0
    3.0369    3.5500    0.0000 N   0  0  0  0  0  0  0  0  0  0  0  0
    3.5739    0.9300    0.0000 H   0  0  0  0  0  0  0  0  0  0  0  0
    2.5000    0.9300    0.0000 H   0  0  0  0  0  0  0  0  0  0  0  0
    3.0369    0.0000    0.0000 H   0  0  0  0  0  0  0  0  0  0  0  0
    3.5739    3.8600    0.0000 H   0  0  0  0  0  0  0  0  0  0  0  0
    2.5000    3.8600    0.0000 H   0  0  0  0  0  0  0  0  0  0  0  0
    3.0369    2.9300    0.0000 H   0  0  0  0  0  0  0  0  0  0  0  0
  2  4  1  0  0  0  0
  2  5  1  0  0  0  0
  2  6  1  0  0  0  0
  3  7  1  0  0  0  0
  3  8  1  0  0  0  0
  3  9  1  0  0  0  0
M  CHG  1   1   1
M  END
> <PUBCHEM_COMPOUND_CID>
3082113

> <PUBCHEM_COMPOUND_CANONICALIZED>
1

> <PUBCHEM_CACTVS_COMPLEXITY>
0

> <PUBCHEM_CACTVS_HBOND_ACCEPTOR>
2

> <PUBCHEM_CACTVS_HBOND_DONOR>
2

> <PUBCHEM_CACTVS_ROTATABLE_BOND>
0

> <PUBCHEM_CACTVS_SUBSKEYS>
AAADcYADAAAAAAAAAAQAAAAAAAAAAAAAAAAAAAAAAAAAAAAAAAAAAAAQAAAAAAAAAAAAAAAAAAAAAAAAAAAAAAAAAAAAAAAAAAAAAAAAAAAAAAAAAAAAAAAAAAAAAAAAAAAAAAAAAAAAAAAAAAAAAAAAAA==

> <PUBCHEM_IUPAC_OPENEYE_NAME>
silver;ammonia

> <PUBCHEM_IUPAC_CAS_NAME>
silver;ammonia

> <PUBCHEM_IUPAC_NAME>
silver;azane

> <PUBCHEM_IUPAC_SYSTEMATIC_NAME>
silver;azane

> <PUBCHEM_IUPAC_TRADITIONAL_NAME>
silver;ammonia

> <PUBCHEM_IUPAC_INCHI>
InChI=1S/Ag.2H3N/h;2*1H3/q+1;;

> <PUBCHEM_IUPAC_INCHIKEY>
IWIFJNQIJSKDJE-UHFFFAOYSA-N

> <PUBCHEM_EXACT_MASS>
140.958

> <PUBCHEM_MOLECULAR_FORMULA>
AgH6N2+

> <PUBCHEM_MOLECULAR_WEIGHT>
141.93

> <PUBCHEM_OPENEYE_CAN_SMILES>
N.N.[Ag+]

> <PUBCHEM_OPENEYE_ISO_SMILES>
N.N.[Ag+]

> <PUBCHEM_CACTVS_TPSA>
2

> <PUBCHEM_MONOISOTOPIC_WEIGHT>
140.958

> <PUBCHEM_TOTAL_CHARGE>
1

> <PUBCHEM_HEAVY_ATOM_COUNT>
3

> <PUBCHEM_ATOM_DEF_STEREO_COUNT>
0

> <PUBCHEM_ATOM_UDEF_STEREO_COUNT>
0

> <PUBCHEM_BOND_DEF_STEREO_COUNT>
0

> <PUBCHEM_BOND_UDEF_STEREO_COUNT>
0

> <PUBCHEM_ISOTOPIC_ATOM_COUNT>
0

> <PUBCHEM_COMPONENT_COUNT>
3

> <PUBCHEM_CACTVS_TAUTO_COUNT>
1

> <PUBCHEM_COORDINATE_TYPE>
1
5
255

$$$$
