115041
  -OEChem-10091719482D

  5  2  0     0  0  0  0  0  0999 V2000
    3.4030   -0.2500    0.0000 Al  0  1  0  0  0  0  0  0  0  0  0  0
    4.2690    0.2500    0.0000 O   0  5  0  0  0  0  0  0  0  0  0  0
    2.5369    0.2500    0.0000 O   0  5  0  0  0  0  0  0  0  0  0  0
    4.8059   -0.0600    0.0000 H   0  0  0  0  0  0  0  0  0  0  0  0
    2.0000   -0.0600    0.0000 H   0  0  0  0  0  0  0  0  0  0  0  0
  2  4  1  0  0  0  0
  3  5  1  0  0  0  0
M  CHG  3   1   3   2  -1   3  -1
M  END
> <PUBCHEM_COMPOUND_CID>
115041

> <PUBCHEM_COMPOUND_CANONICALIZED>
1

> <PUBCHEM_CACTVS_COMPLEXITY>
2.8

> <PUBCHEM_CACTVS_HBOND_ACCEPTOR>
2

> <PUBCHEM_CACTVS_HBOND_DONOR>
2

> <PUBCHEM_CACTVS_ROTATABLE_BOND>
0

> <PUBCHEM_CACTVS_SUBSKEYS>
AAADcQAAMAAAABAAAAAAAAAAAAAAAAAAAAAAAAAAAAAAAAAAAAAAAAAACAAAAAAAAAAAAAAAAAAAAAAAAAAAAAAAAAAAAAAAAAAAAAAAAAAAAAAAAAAAAAAAAAAAAAAAAAAAAAAAAAAAAAAAAAAAAAAAAA==

> <PUBCHEM_IUPAC_OPENEYE_NAME>
aluminum;dihydroxide

> <PUBCHEM_IUPAC_CAS_NAME>
aluminum;dihydroxide

> <PUBCHEM_IUPAC_NAME>
aluminum;dihydroxide

> <PUBCHEM_IUPAC_SYSTEMATIC_NAME>
aluminum;dihydroxide

> <PUBCHEM_IUPAC_TRADITIONAL_NAME>
aluminum;dihydroxide

> <PUBCHEM_IUPAC_INCHI>
InChI=1S/Al.2H2O/h;2*1H2/q+3;;/p-2

> <PUBCHEM_IUPAC_INCHIKEY>
XRKBBQQCEKMQIO-UHFFFAOYSA-L

> <PUBCHEM_EXACT_MASS>
60.987

> <PUBCHEM_MOLECULAR_FORMULA>
AlH2O2+

> <PUBCHEM_MOLECULAR_WEIGHT>
60.996

> <PUBCHEM_OPENEYE_CAN_SMILES>
[OH-].[OH-].[Al+3]

> <PUBCHEM_OPENEYE_ISO_SMILES>
[OH-].[OH-].[Al+3]

> <PUBCHEM_CACTVS_TPSA>
2

> <PUBCHEM_MONOISOTOPIC_WEIGHT>
60.987

> <PUBCHEM_TOTAL_CHARGE>
1

> <PUBCHEM_HEAVY_ATOM_COUNT>
3

> <PUBCHEM_ATOM_DEF_STEREO_COUNT>
0

> <PUBCHEM_ATOM_UDEF_STEREO_COUNT>
0

> <PUBCHEM_BOND_DEF_STEREO_COUNT>
0

> <PUBCHEM_BOND_UDEF_STEREO_COUNT>
0

> <PUBCHEM_ISOTOPIC_ATOM_COUNT>
0

> <PUBCHEM_COMPONENT_COUNT>
3

> <PUBCHEM_CACTVS_TAUTO_COUNT>
1

> <PUBCHEM_NONSTANDARDBOND>
1  2  6
1  3  6

> <PUBCHEM_COORDINATE_TYPE>
1
5
255

$$$$
