13717713
  -OEChem-11092411092D

  9  8  0     0  0  0  0  0  0999 V2000
    5.4641    0.1830    0.0000 Cl  0  0  0  0  0  0  0  0  0  0  0  0
    2.0000   -0.8170    0.0000 F   0  0  0  0  0  0  0  0  0  0  0  0
    2.3660    0.5490    0.0000 F   0  0  0  0  0  0  0  0  0  0  0  0
    3.3660   -1.1830    0.0000 F   0  0  0  0  0  0  0  0  0  0  0  0
    3.7320    1.1830    0.0000 F   0  0  0  0  0  0  0  0  0  0  0  0
    2.8660   -0.3170    0.0000 C   0  0  0  0  0  0  0  0  0  0  0  0
    3.7320    0.1830    0.0000 C   0  0  0  0  0  0  0  0  0  0  0  0
    4.5981   -0.3170    0.0000 C   0  0  0  0  0  0  0  0  0  0  0  0
    4.5981   -0.9370    0.0000 H   0  0  0  0  0  0  0  0  0  0  0  0
  1  8  1  0  0  0  0
  2  6  1  0  0  0  0
  3  6  1  0  0  0  0
  4  6  1  0  0  0  0
  5  7  1  0  0  0  0
  6  7  1  0  0  0  0
  7  8  2  0  0  0  0
  8  9  1  0  0  0  0
M  END
> <PUBCHEM_COMPOUND_CID>
13717713

> <PUBCHEM_COMPOUND_CANONICALIZED>
1

> <PUBCHEM_CACTVS_COMPLEXITY>
102

> <PUBCHEM_CACTVS_HBOND_ACCEPTOR>
4

> <PUBCHEM_CACTVS_HBOND_DONOR>
0

> <PUBCHEM_CACTVS_ROTATABLE_BOND>
0

> <PUBCHEM_CACTVS_SUBSKEYS>
AAADcQBAAcAEAAAAAAAAAAAAAAAAAAAAAAAAAAAAAAAAAAAAAAAAGQIAAAAACAOAAFAAAAAAAACAAABCAAAAAAAAAAAAAAAAAAAAAAAAAAAAAAAAAAAAAAAAAAAAAAAAAAAAAAAAAAAAAAAAAAAAAAAAAA==

> <PUBCHEM_IUPAC_OPENEYE_NAME>
(Z)-1-chloro-2,3,3,3-tetrafluoro-prop-1-ene

> <PUBCHEM_IUPAC_CAS_NAME>
(Z)-1-chloro-2,3,3,3-tetrafluoro-1-propene

> <PUBCHEM_IUPAC_NAME_MARKUP>
(<I>Z</I>)-1-chloro-2,3,3,3-tetrafluoroprop-1-ene

> <PUBCHEM_IUPAC_NAME>
(Z)-1-chloro-2,3,3,3-tetrafluoroprop-1-ene

> <PUBCHEM_IUPAC_SYSTEMATIC_NAME>
(Z)-1-chloranyl-2,3,3,3-tetrakis(fluoranyl)prop-1-ene

> <PUBCHEM_IUPAC_TRADITIONAL_NAME>
(Z)-1-chloro-2,3,3,3-tetrafluoro-prop-1-ene

> <PUBCHEM_IUPAC_INCHI>
InChI=1S/C3HClF4/c4-1-2(5)3(6,7)8/h1H/b2-1-

> <PUBCHEM_IUPAC_INCHIKEY>
GDPWRLVSJWKGPJ-UPHRSURJSA-N

> <PUBCHEM_XLOGP3_AA>
2.1

> <PUBCHEM_EXACT_MASS>
147.9702904

> <PUBCHEM_MOLECULAR_FORMULA>
C3HClF4

> <PUBCHEM_MOLECULAR_WEIGHT>
148.48

> <PUBCHEM_OPENEYE_CAN_SMILES>
C(=C(C(F)(F)F)F)Cl

> <PUBCHEM_OPENEYE_ISO_SMILES>
C(=C(/C(F)(F)F)\F)\Cl

> <PUBCHEM_CACTVS_TPSA>
0

> <PUBCHEM_MONOISOTOPIC_WEIGHT>
147.9702904

> <PUBCHEM_TOTAL_CHARGE>
0

> <PUBCHEM_HEAVY_ATOM_COUNT>
8

> <PUBCHEM_ATOM_DEF_STEREO_COUNT>
0

> <PUBCHEM_ATOM_UDEF_STEREO_COUNT>
0

> <PUBCHEM_BOND_DEF_STEREO_COUNT>
1

> <PUBCHEM_BOND_UDEF_STEREO_COUNT>
0

> <PUBCHEM_ISOTOPIC_ATOM_COUNT>
0

> <PUBCHEM_COMPONENT_COUNT>
1

> <PUBCHEM_CACTVS_TAUTO_COUNT>
-1

> <PUBCHEM_COORDINATE_TYPE>
1
5
255

$$$$
