134996512
  -OEChem-12112416272D

 11 10  0     0  0  0  0  0  0999 V2000
   -0.1724    0.4690    0.0000 C   0  0  0  0  0  0  0  0  0  0  0  0
    0.8828   -0.2069    0.0000 C   0  0  0  0  0  0  0  0  0  0  0  0
   -1.2966   -0.1310    0.0000 C   0  0  0  0  0  0  0  0  0  0  0  0
    2.0069    0.3931    0.0000 C   0  0  0  0  0  0  0  0  0  0  0  0
   -2.3724    0.5414    0.0000 C   0  0  0  0  0  0  0  0  0  0  0  0
    3.0828   -0.2828    0.0000 C   0  0  0  0  0  0  0  0  0  0  0  0
   -3.4931   -0.0448    0.0000 C   0  0  0  0  0  0  0  0  0  0  0  0
    4.2034    0.3103    0.0000 C   0  0  0  0  0  0  0  0  0  0  0  0
   -4.5793    0.6172    0.0000 C   0  0  0  0  0  0  0  0  0  0  0  0
   -3.5310   -1.3069    0.0000 C   0  0  0  0  0  0  0  0  0  0  0  0
    5.2690   -0.3517    0.0000 O   0  0  0  0  0  0  0  0  0  0  0  0
  1  2  1  0  0  0  0
  1  3  1  0  0  0  0
  2  4  1  0  0  0  0
  3  5  1  0  0  0  0
  4  6  1  0  0  0  0
  5  7  1  0  0  0  0
  6  8  1  0  0  0  0
  7  9  1  0  0  0  0
  7 10  1  0  0  0  0
  8 11  1  0  0  0  0
M  END
> <PUBCHEM_COMPOUND_ID_TYPE>
0

> <PUBCHEM_TOTAL_CHARGE>
0

> <PUBCHEM_SUBSTANCE_ID>
134996512

> <PUBCHEM_SUBSTANCE_VERSION>
6

> <PUBCHEM_EXT_DATASOURCE_NAME>
ChemIDplus

> <PUBCHEM_EXT_DATASOURCE_REGID>
0025339177

> <PUBCHEM_SUBSTANCE_COMMENT>
[Other Registry Number] 50973-08-5
[Other Registry Number] 12758-52-0
Skin / Eye Irritant
3160X491M7
0025339177

> <PUBCHEM_SUBSTANCE_SYNONYM>
Isodecyl alcohol
3160X491M7
25339-17-7
UNII-3160X491M7
Isodecanol
EINECS 246-869-1
HSDB 616

> <PUBCHEM_GENERIC_REGISTRY_NAME>
25339-17-7

> <PUBCHEM_XREF_EXT_ID>
0025339177

> <PUBCHEM_EXT_DATASOURCE_URL>
https://pubchem.ncbi.nlm.nih.gov/source/ChemIDplus

> <PUBCHEM_EXT_SUBSTANCE_URL>
https://pubchem.ncbi.nlm.nih.gov/substance/?source=ChemIDplus&sourceid=0025339177

> <PUBCHEM_CID_ASSOCIATIONS>
32898  1

> <PUBCHEM_COORDINATE_TYPE>
1
3

$$$$
