6423795
  -OEChem-11012416402D

 72 72  0     0  0  0  0  0  0999 V2000
   11.5263   -2.5000    0.0000 O   0  0  0  0  0  0  0  0  0  0  0  0
    8.0622   -4.5000    0.0000 O   0  0  0  0  0  0  0  0  0  0  0  0
    9.7942   -2.5000    0.0000 O   0  0  0  0  0  0  0  0  0  0  0  0
    8.9282   -3.0000    0.0000 O   0  0  0  0  0  0  0  0  0  0  0  0
   14.1244    2.0000    0.0000 C   0  0  0  0  0  0  0  0  0  0  0  0
   13.2583    1.5000    0.0000 C   0  0  0  0  0  0  0  0  0  0  0  0
   14.1244    3.0000    0.0000 C   0  0  0  0  0  0  0  0  0  0  0  0
   13.2583    0.5000    0.0000 C   0  0  0  0  0  0  0  0  0  0  0  0
   14.9904    3.5000    0.0000 C   0  0  0  0  0  0  0  0  0  0  0  0
   12.3923    0.0000    0.0000 C   0  0  0  0  0  0  0  0  0  0  0  0
   14.9904    4.5000    0.0000 C   0  0  0  0  0  0  0  0  0  0  0  0
   12.3923   -1.0000    0.0000 C   0  0  0  0  0  0  0  0  0  0  0  0
   15.8564    5.0000    0.0000 C   0  0  0  0  0  0  0  0  0  0  0  0
   11.5263   -1.5000    0.0000 C   0  0  0  0  0  0  0  0  0  0  0  0
    4.5981   -4.5000    0.0000 C   0  0  0  0  0  0  0  0  0  0  0  0
    5.4641   -4.0000    0.0000 C   0  0  0  0  0  0  0  0  0  0  0  0
    3.7320   -4.0000    0.0000 C   0  0  0  0  0  0  0  0  0  0  0  0
    6.3301   -4.5000    0.0000 C   0  0  0  0  0  0  0  0  0  0  0  0
   15.8564    6.0000    0.0000 C   0  0  0  0  0  0  0  0  0  0  0  0
    2.8660   -4.5000    0.0000 C   0  0  0  0  0  0  0  0  0  0  0  0
    7.1962   -4.0000    0.0000 C   0  0  0  0  0  0  0  0  0  0  0  0
    2.0000   -4.0000    0.0000 C   0  0  0  0  0  0  0  0  0  0  0  0
   10.6603   -3.0000    0.0000 C   0  0  0  0  0  0  0  0  0  0  0  0
   10.6603   -4.0000    0.0000 C   0  0  0  0  0  0  0  0  0  0  0  0
    9.7942   -4.5000    0.0000 C   0  0  0  0  0  0  0  0  0  0  0  0
    8.9282   -4.0000    0.0000 C   0  0  0  0  0  0  0  0  0  0  0  0
   11.5263   -4.5000    0.0000 C   0  0  0  0  0  0  0  0  0  0  0  0
    9.7942   -5.5000    0.0000 C   0  0  0  0  0  0  0  0  0  0  0  0
   11.5263   -5.5000    0.0000 C   0  0  0  0  0  0  0  0  0  0  0  0
   10.6603   -6.0000    0.0000 C   0  0  0  0  0  0  0  0  0  0  0  0
   14.3364    1.4174    0.0000 H   0  0  0  0  0  0  0  0  0  0  0  0
   14.7349    2.1077    0.0000 H   0  0  0  0  0  0  0  0  0  0  0  0
   13.0463    2.0826    0.0000 H   0  0  0  0  0  0  0  0  0  0  0  0
   12.6477    1.3923    0.0000 H   0  0  0  0  0  0  0  0  0  0  0  0
   13.9123    3.5826    0.0000 H   0  0  0  0  0  0  0  0  0  0  0  0
   13.5138    2.8923    0.0000 H   0  0  0  0  0  0  0  0  0  0  0  0
   13.4704   -0.0826    0.0000 H   0  0  0  0  0  0  0  0  0  0  0  0
   13.8689    0.6077    0.0000 H   0  0  0  0  0  0  0  0  0  0  0  0
   15.2024    2.9174    0.0000 H   0  0  0  0  0  0  0  0  0  0  0  0
   15.6010    3.6077    0.0000 H   0  0  0  0  0  0  0  0  0  0  0  0
   12.1803    0.5826    0.0000 H   0  0  0  0  0  0  0  0  0  0  0  0
   11.7817   -0.1077    0.0000 H   0  0  0  0  0  0  0  0  0  0  0  0
   14.7783    5.0826    0.0000 H   0  0  0  0  0  0  0  0  0  0  0  0
   14.3798    4.3923    0.0000 H   0  0  0  0  0  0  0  0  0  0  0  0
   12.6044   -1.5826    0.0000 H   0  0  0  0  0  0  0  0  0  0  0  0
   13.0029   -0.8923    0.0000 H   0  0  0  0  0  0  0  0  0  0  0  0
   16.0685    4.4174    0.0000 H   0  0  0  0  0  0  0  0  0  0  0  0
   16.4670    5.1077    0.0000 H   0  0  0  0  0  0  0  0  0  0  0  0
    4.1996   -4.9750    0.0000 H   0  0  0  0  0  0  0  0  0  0  0  0
    4.9966   -4.9750    0.0000 H   0  0  0  0  0  0  0  0  0  0  0  0
   11.3142   -0.9174    0.0000 H   0  0  0  0  0  0  0  0  0  0  0  0
   10.9157   -1.6077    0.0000 H   0  0  0  0  0  0  0  0  0  0  0  0
    5.8626   -3.5250    0.0000 H   0  0  0  0  0  0  0  0  0  0  0  0
    5.0656   -3.5250    0.0000 H   0  0  0  0  0  0  0  0  0  0  0  0
    4.1306   -3.5250    0.0000 H   0  0  0  0  0  0  0  0  0  0  0  0
    3.3335   -3.5250    0.0000 H   0  0  0  0  0  0  0  0  0  0  0  0
    5.9316   -4.9750    0.0000 H   0  0  0  0  0  0  0  0  0  0  0  0
    6.7287   -4.9750    0.0000 H   0  0  0  0  0  0  0  0  0  0  0  0
   16.4764    6.0000    0.0000 H   0  0  0  0  0  0  0  0  0  0  0  0
   15.8564    6.6200    0.0000 H   0  0  0  0  0  0  0  0  0  0  0  0
   15.2364    6.0000    0.0000 H   0  0  0  0  0  0  0  0  0  0  0  0
    2.4675   -4.9750    0.0000 H   0  0  0  0  0  0  0  0  0  0  0  0
    3.2646   -4.9750    0.0000 H   0  0  0  0  0  0  0  0  0  0  0  0
    7.5947   -3.5250    0.0000 H   0  0  0  0  0  0  0  0  0  0  0  0
    6.7976   -3.5250    0.0000 H   0  0  0  0  0  0  0  0  0  0  0  0
    2.3100   -3.4631    0.0000 H   0  0  0  0  0  0  0  0  0  0  0  0
    1.4631   -3.6900    0.0000 H   0  0  0  0  0  0  0  0  0  0  0  0
    1.6900   -4.5369    0.0000 H   0  0  0  0  0  0  0  0  0  0  0  0
   12.0632   -4.1900    0.0000 H   0  0  0  0  0  0  0  0  0  0  0  0
    9.2573   -5.8100    0.0000 H   0  0  0  0  0  0  0  0  0  0  0  0
   12.0632   -5.8100    0.0000 H   0  0  0  0  0  0  0  0  0  0  0  0
   10.6603   -6.6200    0.0000 H   0  0  0  0  0  0  0  0  0  0  0  0
  1 14  1  0  0  0  0
  1 23  1  0  0  0  0
  2 21  1  0  0  0  0
  2 26  1  0  0  0  0
  3 23  2  0  0  0  0
  4 26  2  0  0  0  0
  5  6  1  0  0  0  0
  5  7  1  0  0  0  0
  5 31  1  0  0  0  0
  5 32  1  0  0  0  0
  6  8  1  0  0  0  0
  6 33  1  0  0  0  0
  6 34  1  0  0  0  0
  7  9  1  0  0  0  0
  7 35  1  0  0  0  0
  7 36  1  0  0  0  0
  8 10  1  0  0  0  0
  8 37  1  0  0  0  0
  8 38  1  0  0  0  0
  9 11  1  0  0  0  0
  9 39  1  0  0  0  0
  9 40  1  0  0  0  0
 10 12  1  0  0  0  0
 10 41  1  0  0  0  0
 10 42  1  0  0  0  0
 11 13  1  0  0  0  0
 11 43  1  0  0  0  0
 11 44  1  0  0  0  0
 12 14  1  0  0  0  0
 12 45  1  0  0  0  0
 12 46  1  0  0  0  0
 13 19  1  0  0  0  0
 13 47  1  0  0  0  0
 13 48  1  0  0  0  0
 14 51  1  0  0  0  0
 14 52  1  0  0  0  0
 15 16  1  0  0  0  0
 15 17  1  0  0  0  0
 15 49  1  0  0  0  0
 15 50  1  0  0  0  0
 16 18  1  0  0  0  0
 16 53  1  0  0  0  0
 16 54  1  0  0  0  0
 17 20  1  0  0  0  0
 17 55  1  0  0  0  0
 17 56  1  0  0  0  0
 18 21  1  0  0  0  0
 18 57  1  0  0  0  0
 18 58  1  0  0  0  0
 19 59  1  0  0  0  0
 19 60  1  0  0  0  0
 19 61  1  0  0  0  0
 20 22  1  0  0  0  0
 20 62  1  0  0  0  0
 20 63  1  0  0  0  0
 21 64  1  0  0  0  0
 21 65  1  0  0  0  0
 22 66  1  0  0  0  0
 22 67  1  0  0  0  0
 22 68  1  0  0  0  0
 23 24  1  0  0  0  0
 24 25  1  0  0  0  0
 24 27  2  0  0  0  0
 25 26  1  0  0  0  0
 25 28  2  0  0  0  0
 27 29  1  0  0  0  0
 27 69  1  0  0  0  0
 28 30  1  0  0  0  0
 28 70  1  0  0  0  0
 29 30  2  0  0  0  0
 29 71  1  0  0  0  0
 30 72  1  0  0  0  0
M  END
> <PUBCHEM_COMPOUND_CID>
6423795

> <PUBCHEM_COMPOUND_CANONICALIZED>
1

> <PUBCHEM_CACTVS_COMPLEXITY>
435

> <PUBCHEM_CACTVS_HBOND_ACCEPTOR>
4

> <PUBCHEM_CACTVS_HBOND_DONOR>
0

> <PUBCHEM_CACTVS_ROTATABLE_BOND>
20

> <PUBCHEM_CACTVS_SUBSKEYS>
AAADcfB4OAAAAAAAAAAAAAAAAAAAAAAAAAAwAAAAAAAAAAABAAAAGgAAAAAADACgmAIyCIAABACIAiDSCAACAAAkAAAIiAEACMgIJjKANRiCMQAkwAEIqYfLyKCOgAAAAAAQAAAAAAAAACAAAAAAAAAAAA==

> <PUBCHEM_IUPAC_OPENEYE_NAME>
O1-heptyl O2-undecyl benzene-1,2-dicarboxylate

> <PUBCHEM_IUPAC_CAS_NAME>
benzene-1,2-dicarboxylic acid O1-heptyl ester O2-undecyl ester

> <PUBCHEM_IUPAC_NAME_MARKUP>
1-<I>O</I>-heptyl 2-<I>O</I>-undecyl benzene-1,2-dicarboxylate

> <PUBCHEM_IUPAC_NAME>
1-O-heptyl 2-O-undecyl benzene-1,2-dicarboxylate

> <PUBCHEM_IUPAC_SYSTEMATIC_NAME>
O1-heptyl O2-undecyl benzene-1,2-dicarboxylate

> <PUBCHEM_IUPAC_TRADITIONAL_NAME>
benzene-1,2-dicarboxylic acid O1-heptyl ester O2-undecyl ester

> <PUBCHEM_IUPAC_INCHI>
InChI=1S/C26H42O4/c1-3-5-7-9-10-11-12-14-18-22-30-26(28)24-20-16-15-19-23(24)25(27)29-21-17-13-8-6-4-2/h15-16,19-20H,3-14,17-18,21-22H2,1-2H3

> <PUBCHEM_IUPAC_INCHIKEY>
ILVKYQKHSCWQAW-UHFFFAOYSA-N

> <PUBCHEM_XLOGP3>
10.1

> <PUBCHEM_EXACT_MASS>
418.30830982

> <PUBCHEM_MOLECULAR_FORMULA>
C26H42O4

> <PUBCHEM_MOLECULAR_WEIGHT>
418.6

> <PUBCHEM_OPENEYE_CAN_SMILES>
CCCCCCCCCCCOC(=O)C1=CC=CC=C1C(=O)OCCCCCCC

> <PUBCHEM_OPENEYE_ISO_SMILES>
CCCCCCCCCCCOC(=O)C1=CC=CC=C1C(=O)OCCCCCCC

> <PUBCHEM_CACTVS_TPSA>
52.6

> <PUBCHEM_MONOISOTOPIC_WEIGHT>
418.30830982

> <PUBCHEM_TOTAL_CHARGE>
0

> <PUBCHEM_HEAVY_ATOM_COUNT>
30

> <PUBCHEM_ATOM_DEF_STEREO_COUNT>
0

> <PUBCHEM_ATOM_UDEF_STEREO_COUNT>
0

> <PUBCHEM_BOND_DEF_STEREO_COUNT>
0

> <PUBCHEM_BOND_UDEF_STEREO_COUNT>
0

> <PUBCHEM_ISOTOPIC_ATOM_COUNT>
0

> <PUBCHEM_COMPONENT_COUNT>
1

> <PUBCHEM_CACTVS_TAUTO_COUNT>
-1

> <PUBCHEM_COORDINATE_TYPE>
1
5
255

> <PUBCHEM_BONDANNOTATIONS>
24  25  8
24  27  8
25  28  8
27  29  8
28  30  8
29  30  8

$$$$
