24477
  -OEChem-11122417082D

  7  4  0     0  0  0  0  0  0999 V2000
    3.7320    0.0000    0.0000 S   0  0  0  0  0  0  0  0  0  0  0  0
    3.2320    0.8660    0.0000 S   0  0  0  0  0  0  0  0  0  0  0  0
    5.4641    0.0000    0.0000 Na  0  3  0  0  0  0  0  0  0  0  0  0
    2.0000   -0.0000    0.0000 Na  0  3  0  0  0  0  0  0  0  0  0  0
    4.5981    0.5000    0.0000 O   0  5  0  0  0  0  0  0  0  0  0  0
    2.8660   -0.5000    0.0000 O   0  5  0  0  0  0  0  0  0  0  0  0
    4.2320   -0.8660    0.0000 O   0  0  0  0  0  0  0  0  0  0  0  0
  1  2  2  0  0  0  0
  1  5  1  0  0  0  0
  1  6  1  0  0  0  0
  1  7  2  0  0  0  0
M  CHG  4   3   1   4   1   5  -1   6  -1
M  END
> <PUBCHEM_COMPOUND_CID>
24477

> <PUBCHEM_COMPOUND_CANONICALIZED>
1

> <PUBCHEM_CACTVS_COMPLEXITY>
82.6

> <PUBCHEM_CACTVS_HBOND_ACCEPTOR>
4

> <PUBCHEM_CACTVS_HBOND_DONOR>
0

> <PUBCHEM_CACTVS_ROTATABLE_BOND>
0

> <PUBCHEM_CACTVS_SUBSKEYS>
AAADcQAAMDBgAAAAAAAAAAAAAAAAAAAAAAAAAAAAAAAAAAAAAAAAAAAAAAAAAAAAAAAAAAAAAAAAAAAAACAAAAAAAAAAAAAAAAAAAAAAAAAAAAAAAAAAAAAAAAAAAAAAAAAAAAAAAAAAAAAAAAAAAAAAAA==

> <PUBCHEM_IUPAC_OPENEYE_NAME>
disodium;dioxido-oxo-thioxo-lambda6-sulfane

> <PUBCHEM_IUPAC_CAS_NAME>
disodium;dioxido-oxo-sulfanylidene-lambda6-sulfane

> <PUBCHEM_IUPAC_NAME_MARKUP>
disodium;dioxido-oxo-sulfanylidene-&lambda;<SUP>6</SUP>-sulfane

> <PUBCHEM_IUPAC_NAME>
disodium;dioxido-oxo-sulfanylidene-lambda6-sulfane

> <PUBCHEM_IUPAC_SYSTEMATIC_NAME>
disodium;bis(oxidanidyl)-oxidanylidene-sulfanylidene-lambda6-sulfane

> <PUBCHEM_IUPAC_TRADITIONAL_NAME>
disodium;keto-dioxido-thioxo-lambda6-sulfane

> <PUBCHEM_IUPAC_INCHI>
InChI=1S/2Na.H2O3S2/c;;1-5(2,3)4/h;;(H2,1,2,3,4)/q2*+1;/p-2

> <PUBCHEM_IUPAC_INCHIKEY>
AKHNMLFCWUSKQB-UHFFFAOYSA-L

> <PUBCHEM_EXACT_MASS>
157.90842477

> <PUBCHEM_MOLECULAR_FORMULA>
Na2O3S2

> <PUBCHEM_MOLECULAR_WEIGHT>
158.11

> <PUBCHEM_OPENEYE_CAN_SMILES>
[O-]S(=O)(=S)[O-].[Na+].[Na+]

> <PUBCHEM_OPENEYE_ISO_SMILES>
[O-]S(=O)(=S)[O-].[Na+].[Na+]

> <PUBCHEM_CACTVS_TPSA>
104

> <PUBCHEM_MONOISOTOPIC_WEIGHT>
157.90842477

> <PUBCHEM_TOTAL_CHARGE>
0

> <PUBCHEM_HEAVY_ATOM_COUNT>
7

> <PUBCHEM_ATOM_DEF_STEREO_COUNT>
0

> <PUBCHEM_ATOM_UDEF_STEREO_COUNT>
0

> <PUBCHEM_BOND_DEF_STEREO_COUNT>
0

> <PUBCHEM_BOND_UDEF_STEREO_COUNT>
0

> <PUBCHEM_ISOTOPIC_ATOM_COUNT>
0

> <PUBCHEM_COMPONENT_COUNT>
3

> <PUBCHEM_CACTVS_TAUTO_COUNT>
-1

> <PUBCHEM_COORDINATE_TYPE>
1
5
255

$$$$
