177595
  -OEChem-10081718362D

  9  8  0     0  0  0  0  0  0999 V2000
    4.2690    0.5000    0.0000 O   0  0  0  0  0  0  0  0  0  0  0  0
    2.5369   -0.5000    0.0000 O   0  0  0  0  0  0  0  0  0  0  0  0
    2.9030    0.8660    0.0000 O   0  0  0  0  0  0  0  0  0  0  0  0
    3.9030   -0.8660    0.0000 O   0  0  0  0  0  0  0  0  0  0  0  0
    3.4030    0.0000    0.0000 B   0  5  0  0  0  0  0  0  0  0  0  0
    4.8059    0.1900    0.0000 H   0  0  0  0  0  0  0  0  0  0  0  0
    2.0000   -0.1900    0.0000 H   0  0  0  0  0  0  0  0  0  0  0  0
    3.2130    1.4030    0.0000 H   0  0  0  0  0  0  0  0  0  0  0  0
    3.5930   -1.4030    0.0000 H   0  0  0  0  0  0  0  0  0  0  0  0
  1  5  1  0  0  0  0
  1  6  1  0  0  0  0
  2  5  1  0  0  0  0
  2  7  1  0  0  0  0
  3  5  1  0  0  0  0
  3  8  1  0  0  0  0
  4  5  1  0  0  0  0
  4  9  1  0  0  0  0
M  CHG  1   5  -1
M  END
> <PUBCHEM_COMPOUND_CID>
177595

> <PUBCHEM_COMPOUND_CANONICALIZED>
1

> <PUBCHEM_CACTVS_COMPLEXITY>
19.1

> <PUBCHEM_CACTVS_HBOND_ACCEPTOR>
5

> <PUBCHEM_CACTVS_HBOND_DONOR>
4

> <PUBCHEM_CACTVS_ROTATABLE_BOND>
0

> <PUBCHEM_CACTVS_SUBSKEYS>
AAADcYIAOAAAAAAAAAAAAAAAAAAAAAAAAAAAAAAAAAAAAAAAAAAIAAAACAAAAAAAAAAAAAAAAAAAAAAAAAAAAAAAAAAAAAAAAAAAAAAAAAAAAAAAAAAAAAAAAAAAAAAAAAAAAAAAAAAAAAAAAAAAAAAAAA==

> <PUBCHEM_IUPAC_OPENEYE_NAME>
tetrahydroxyboranuide

> <PUBCHEM_IUPAC_CAS_NAME>
tetrahydroxyboranuide

> <PUBCHEM_IUPAC_NAME>
tetrahydroxyboranuide

> <PUBCHEM_IUPAC_SYSTEMATIC_NAME>
tetrakis(oxidanyl)boranuide

> <PUBCHEM_IUPAC_TRADITIONAL_NAME>
tetrahydroxyboranuide

> <PUBCHEM_IUPAC_INCHI>
InChI=1S/BH4O4/c2-1(3,4)5/h2-5H/q-1

> <PUBCHEM_IUPAC_INCHIKEY>
KCFLOKKYWBPKFN-UHFFFAOYSA-N

> <PUBCHEM_EXACT_MASS>
79.02

> <PUBCHEM_MOLECULAR_FORMULA>
BH4O4-

> <PUBCHEM_MOLECULAR_WEIGHT>
78.838

> <PUBCHEM_OPENEYE_CAN_SMILES>
[B-](O)(O)(O)O

> <PUBCHEM_OPENEYE_ISO_SMILES>
[B-](O)(O)(O)O

> <PUBCHEM_CACTVS_TPSA>
80.9

> <PUBCHEM_MONOISOTOPIC_WEIGHT>
79.02

> <PUBCHEM_TOTAL_CHARGE>
-1

> <PUBCHEM_HEAVY_ATOM_COUNT>
5

> <PUBCHEM_ATOM_DEF_STEREO_COUNT>
0

> <PUBCHEM_ATOM_UDEF_STEREO_COUNT>
0

> <PUBCHEM_BOND_DEF_STEREO_COUNT>
0

> <PUBCHEM_BOND_UDEF_STEREO_COUNT>
0

> <PUBCHEM_ISOTOPIC_ATOM_COUNT>
0

> <PUBCHEM_COMPONENT_COUNT>
1

> <PUBCHEM_CACTVS_TAUTO_COUNT>
1

> <PUBCHEM_COORDINATE_TYPE>
1
5
255

$$$$
