5460630
  -OEChem-10081718562D

  5  4  0     0  0  0  0  0  0999 V2000
    2.8660    0.0000    0.0000 Br  0  0  0  0  0  0  0  0  0  0  0  0
    3.7320    0.5000    0.0000 O   0  5  0  0  0  0  0  0  0  0  0  0
    2.0000   -0.5000    0.0000 O   0  0  0  0  0  0  0  0  0  0  0  0
    2.3660    0.8660    0.0000 O   0  0  0  0  0  0  0  0  0  0  0  0
    3.3660   -0.8660    0.0000 O   0  0  0  0  0  0  0  0  0  0  0  0
  1  2  1  0  0  0  0
  1  3  2  0  0  0  0
  1  4  2  0  0  0  0
  1  5  2  0  0  0  0
M  CHG  1   2  -1
M  END
> <PUBCHEM_COMPOUND_CID>
5460630

> <PUBCHEM_COMPOUND_CANONICALIZED>
1

> <PUBCHEM_CACTVS_COMPLEXITY>
95.8

> <PUBCHEM_CACTVS_HBOND_ACCEPTOR>
4

> <PUBCHEM_CACTVS_HBOND_DONOR>
0

> <PUBCHEM_CACTVS_ROTATABLE_BOND>
0

> <PUBCHEM_CACTVS_SUBSKEYS>
AAADcQAAOAAAEAAAAAAAAAAAAAAAAAAAAAAAAAAAAAAAAAAAAAAAAAAAAAAAAAAAAAAAAAAAAAAAAAAAAAAAAAAAAAAAAAAAAAAAAAAAAAAAAAAAAAAAAAAAAAAAAAAAAAAAAAAAAAAAAAAAAAAAAAAAAA==

> <PUBCHEM_IUPAC_OPENEYE_NAME>
perbromate

> <PUBCHEM_IUPAC_CAS_NAME>
perbromate

> <PUBCHEM_IUPAC_NAME>
perbromate

> <PUBCHEM_IUPAC_SYSTEMATIC_NAME>
perbromate

> <PUBCHEM_IUPAC_TRADITIONAL_NAME>
perbromate

> <PUBCHEM_IUPAC_INCHI>
InChI=1S/BrHO4/c2-1(3,4)5/h(H,2,3,4,5)/p-1

> <PUBCHEM_IUPAC_INCHIKEY>
LLYCMZGLHLKPPU-UHFFFAOYSA-M

> <PUBCHEM_XLOGP3_AA>
-1.3

> <PUBCHEM_EXACT_MASS>
142.898

> <PUBCHEM_MOLECULAR_FORMULA>
BrO4-

> <PUBCHEM_MOLECULAR_WEIGHT>
143.9

> <PUBCHEM_OPENEYE_CAN_SMILES>
[O-]Br(=O)(=O)=O

> <PUBCHEM_OPENEYE_ISO_SMILES>
[O-]Br(=O)(=O)=O

> <PUBCHEM_CACTVS_TPSA>
74.3

> <PUBCHEM_MONOISOTOPIC_WEIGHT>
142.898

> <PUBCHEM_TOTAL_CHARGE>
-1

> <PUBCHEM_HEAVY_ATOM_COUNT>
5

> <PUBCHEM_ATOM_DEF_STEREO_COUNT>
0

> <PUBCHEM_ATOM_UDEF_STEREO_COUNT>
0

> <PUBCHEM_BOND_DEF_STEREO_COUNT>
0

> <PUBCHEM_BOND_UDEF_STEREO_COUNT>
0

> <PUBCHEM_ISOTOPIC_ATOM_COUNT>
0

> <PUBCHEM_COMPONENT_COUNT>
1

> <PUBCHEM_CACTVS_TAUTO_COUNT>
1

> <PUBCHEM_COORDINATE_TYPE>
1
5
255

$$$$
