28117
  -OEChem-10081723052D

  7  6  0     0  0  0  0  0  0999 V2000
    2.8660    0.0000    0.0000 Si  0  6  0  0  0  0  0  0  0  0  0  0
    3.7320    0.5000    0.0000 F   0  0  0  0  0  0  0  0  0  0  0  0
    2.0000   -0.5000    0.0000 F   0  0  0  0  0  0  0  0  0  0  0  0
    2.0000    0.5000    0.0000 F   0  0  0  0  0  0  0  0  0  0  0  0
    2.8660   -1.0000    0.0000 F   0  0  0  0  0  0  0  0  0  0  0  0
    2.8660    1.0000    0.0000 F   0  0  0  0  0  0  0  0  0  0  0  0
    3.7320   -0.5000    0.0000 F   0  0  0  0  0  0  0  0  0  0  0  0
  1  2  1  0  0  0  0
  1  3  1  0  0  0  0
  1  4  1  0  0  0  0
  1  5  1  0  0  0  0
  1  6  1  0  0  0  0
  1  7  1  0  0  0  0
M  CHG  1   1  -2
M  END
> <PUBCHEM_COMPOUND_CID>
28117

> <PUBCHEM_COMPOUND_CANONICALIZED>
1

> <PUBCHEM_CACTVS_COMPLEXITY>
62.7

> <PUBCHEM_CACTVS_HBOND_ACCEPTOR>
7

> <PUBCHEM_CACTVS_HBOND_DONOR>
0

> <PUBCHEM_CACTVS_ROTATABLE_BOND>
0

> <PUBCHEM_CACTVS_SUBSKEYS>
AAADcQAAAcgAAAAAAAAAAAAAAAAAAAAAAAAAAAAAAAAAAAAAAAAAAAAAAAAAAAAAAAAAAAAAAAAAAAAAAAAAAAAAAAAAAAAAAAAAAAAAAAAAAAAAAAAAAAAAAAAAAAAAAAAAAAAAAAAAAAAAAAAAAAAAAA==

> <PUBCHEM_IUPAC_OPENEYE_NAME>
hexafluorosilicon(2-)

> <PUBCHEM_IUPAC_CAS_NAME>
hexafluorosilicon(2-)

> <PUBCHEM_IUPAC_NAME>
hexafluorosilicon(2-)

> <PUBCHEM_IUPAC_SYSTEMATIC_NAME>
hexakis(fluoranyl)silicon(2-)

> <PUBCHEM_IUPAC_TRADITIONAL_NAME>
hexafluorosilicon(2-)

> <PUBCHEM_IUPAC_INCHI>
InChI=1S/F6Si/c1-7(2,3,4,5)6/q-2

> <PUBCHEM_IUPAC_INCHIKEY>
OHORFAFFMDIQRR-UHFFFAOYSA-N

> <PUBCHEM_EXACT_MASS>
141.967

> <PUBCHEM_MOLECULAR_FORMULA>
F6Si-2

> <PUBCHEM_MOLECULAR_WEIGHT>
142.075

> <PUBCHEM_OPENEYE_CAN_SMILES>
F[Si-2](F)(F)(F)(F)F

> <PUBCHEM_OPENEYE_ISO_SMILES>
F[Si-2](F)(F)(F)(F)F

> <PUBCHEM_CACTVS_TPSA>
0

> <PUBCHEM_MONOISOTOPIC_WEIGHT>
141.967

> <PUBCHEM_TOTAL_CHARGE>
-2

> <PUBCHEM_HEAVY_ATOM_COUNT>
7

> <PUBCHEM_ATOM_DEF_STEREO_COUNT>
0

> <PUBCHEM_ATOM_UDEF_STEREO_COUNT>
0

> <PUBCHEM_BOND_DEF_STEREO_COUNT>
0

> <PUBCHEM_BOND_UDEF_STEREO_COUNT>
0

> <PUBCHEM_ISOTOPIC_ATOM_COUNT>
0

> <PUBCHEM_COMPONENT_COUNT>
1

> <PUBCHEM_CACTVS_TAUTO_COUNT>
1

> <PUBCHEM_COORDINATE_TYPE>
1
5
255

$$$$
