412976
  -OEChem-10081719062D

 17  8  0     0  0  0  0  0  0999 V2000
    3.9318    0.0000    0.0000 Mo  0  0  0  0  0  0  0  0  0  0  0  0
    5.6639    1.0000    0.0000 N   0  0  0  0  0  0  0  0  0  0  0  0
    2.1998   -1.0000    0.0000 N   0  0  0  0  0  0  0  0  0  0  0  0
    3.4142   -1.9318    0.0000 N   0  0  0  0  0  0  0  0  0  0  0  0
    2.0000    0.5176    0.0000 N   0  0  0  0  0  0  0  0  0  0  0  0
    4.9318   -1.7320    0.0000 N   0  0  0  0  0  0  0  0  0  0  0  0
    2.9318    1.7320    0.0000 N   0  0  0  0  0  0  0  0  0  0  0  0
    5.8637   -0.5176    0.0000 N   0  0  0  0  0  0  0  0  0  0  0  0
    4.4495    1.9318    0.0000 N   0  0  0  0  0  0  0  0  0  0  0  0
    4.7979    0.5000    0.0000 C   0  5  0  0  0  0  0  0  0  0  0  0
    3.0658   -0.5000    0.0000 C   0  5  0  0  0  0  0  0  0  0  0  0
    3.6730   -0.9659    0.0000 C   0  5  0  0  0  0  0  0  0  0  0  0
    2.9659    0.2588    0.0000 C   0  5  0  0  0  0  0  0  0  0  0  0
    4.4318   -0.8660    0.0000 C   0  5  0  0  0  0  0  0  0  0  0  0
    3.4318    0.8660    0.0000 C   0  5  0  0  0  0  0  0  0  0  0  0
    4.8978   -0.2588    0.0000 C   0  5  0  0  0  0  0  0  0  0  0  0
    4.1907    0.9659    0.0000 C   0  5  0  0  0  0  0  0  0  0  0  0
  2 10  3  0  0  0  0
  3 11  3  0  0  0  0
  4 12  3  0  0  0  0
  5 13  3  0  0  0  0
  6 14  3  0  0  0  0
  7 15  3  0  0  0  0
  8 16  3  0  0  0  0
  9 17  3  0  0  0  0
M  CHG  8  10  -1  11  -1  12  -1  13  -1  14  -1  15  -1  16  -1  17  -1
M  END
> <PUBCHEM_COMPOUND_CID>
412976

> <PUBCHEM_COMPOUND_CANONICALIZED>
1

> <PUBCHEM_CACTVS_COMPLEXITY>
182

> <PUBCHEM_CACTVS_HBOND_ACCEPTOR>
16

> <PUBCHEM_CACTVS_HBOND_DONOR>
0

> <PUBCHEM_CACTVS_ROTATABLE_BOND>
0

> <PUBCHEM_CACTVS_SUBSKEYS>
AAADcQBzwAAAAAAAAEAAAAAAAAAAAAAAAAAAAAAAAAAAAAAAAAAABAAAAAAAAAAAAAAAAAAAAAAQAAAAAAAAAAAAAAAAAAAAAAAAAAAAAAAAAAAAAAAAAAAAAAAAAAAAAAAAAAAAAAAAAAAAAAAAAAAAAA==

> <PUBCHEM_IUPAC_OPENEYE_NAME>
molybdenum;octacyanide

> <PUBCHEM_IUPAC_CAS_NAME>
molybdenum;octacyanide

> <PUBCHEM_IUPAC_NAME>
molybdenum;octacyanide

> <PUBCHEM_IUPAC_SYSTEMATIC_NAME>
molybdenum;octacyanide

> <PUBCHEM_IUPAC_TRADITIONAL_NAME>
molybdenum;octacyanide

> <PUBCHEM_IUPAC_INCHI>
InChI=1S/8CN.Mo/c8*1-2;/q8*-1;

> <PUBCHEM_IUPAC_INCHIKEY>
NBGVJDDKPHCFFE-UHFFFAOYSA-N

> <PUBCHEM_EXACT_MASS>
305.93

> <PUBCHEM_MOLECULAR_FORMULA>
C8MoN8-8

> <PUBCHEM_MOLECULAR_WEIGHT>
304.094

> <PUBCHEM_OPENEYE_CAN_SMILES>
[C-]#N.[C-]#N.[C-]#N.[C-]#N.[C-]#N.[C-]#N.[C-]#N.[C-]#N.[Mo]

> <PUBCHEM_OPENEYE_ISO_SMILES>
[C-]#N.[C-]#N.[C-]#N.[C-]#N.[C-]#N.[C-]#N.[C-]#N.[C-]#N.[Mo]

> <PUBCHEM_CACTVS_TPSA>
190

> <PUBCHEM_MONOISOTOPIC_WEIGHT>
305.93

> <PUBCHEM_TOTAL_CHARGE>
-8

> <PUBCHEM_HEAVY_ATOM_COUNT>
17

> <PUBCHEM_ATOM_DEF_STEREO_COUNT>
0

> <PUBCHEM_ATOM_UDEF_STEREO_COUNT>
0

> <PUBCHEM_BOND_DEF_STEREO_COUNT>
0

> <PUBCHEM_BOND_UDEF_STEREO_COUNT>
0

> <PUBCHEM_ISOTOPIC_ATOM_COUNT>
0

> <PUBCHEM_COMPONENT_COUNT>
9

> <PUBCHEM_CACTVS_TAUTO_COUNT>
1

> <PUBCHEM_NONSTANDARDBOND>
1  10  6
1  11  6
1  12  6
1  13  6
1  14  6
1  15  6
1  16  6
1  17  6

> <PUBCHEM_COORDINATE_TYPE>
1
5
255

$$$$
