16682992
  -OEChem-10081719162D

  7  6  0     0  0  0  0  0  0999 V2000
    2.8660    0.0000    0.0000 Al  0  7  0  0  0  0  0  0  0  0  0  0
    3.7320    0.5000    0.0000 F   0  0  0  0  0  0  0  0  0  0  0  0
    2.0000   -0.5000    0.0000 F   0  0  0  0  0  0  0  0  0  0  0  0
    2.0000    0.5000    0.0000 F   0  0  0  0  0  0  0  0  0  0  0  0
    2.8660   -1.0000    0.0000 F   0  0  0  0  0  0  0  0  0  0  0  0
    2.8660    1.0000    0.0000 F   0  0  0  0  0  0  0  0  0  0  0  0
    3.7320   -0.5000    0.0000 F   0  0  0  0  0  0  0  0  0  0  0  0
  1  2  1  0  0  0  0
  1  3  1  0  0  0  0
  1  4  1  0  0  0  0
  1  5  1  0  0  0  0
  1  6  1  0  0  0  0
  1  7  1  0  0  0  0
M  CHG  1   1  -3
M  END
> <PUBCHEM_COMPOUND_CID>
16682992

> <PUBCHEM_COMPOUND_CANONICALIZED>
1

> <PUBCHEM_CACTVS_COMPLEXITY>
62.7

> <PUBCHEM_CACTVS_HBOND_ACCEPTOR>
7

> <PUBCHEM_CACTVS_HBOND_DONOR>
0

> <PUBCHEM_CACTVS_ROTATABLE_BOND>
0

> <PUBCHEM_CACTVS_SUBSKEYS>
AAADcQAAAcAAABAAAAAAAAAAAAAAAAAAAAAAAAAAAAAAAAAAAAAAAAAAAAAAAAAAAAAAAAAAAAAAAAAAAAAAAAAAAAAAAAAAAAAAAAAAAAAAAAAAAAAAAAAAAAAAAAAAAAAAAAAAAAAAAAAAAAAAAAAAAA==

> <PUBCHEM_IUPAC_OPENEYE_NAME>
hexafluoroaluminum(3-)

> <PUBCHEM_IUPAC_CAS_NAME>
hexafluoroaluminum(3-)

> <PUBCHEM_IUPAC_NAME>
hexafluoroaluminum(3-)

> <PUBCHEM_IUPAC_SYSTEMATIC_NAME>
hexakis(fluoranyl)aluminum(3-)

> <PUBCHEM_IUPAC_TRADITIONAL_NAME>
hexafluoroaluminum(3-)

> <PUBCHEM_IUPAC_INCHI>
InChI=1S/Al.6FH/h;6*1H/q+3;;;;;;/p-6

> <PUBCHEM_IUPAC_INCHIKEY>
SEGUCIUJQMRTGG-UHFFFAOYSA-H

> <PUBCHEM_EXACT_MASS>
140.972

> <PUBCHEM_MOLECULAR_FORMULA>
AlF6-3

> <PUBCHEM_MOLECULAR_WEIGHT>
140.972

> <PUBCHEM_OPENEYE_CAN_SMILES>
F[Al-3](F)(F)(F)(F)F

> <PUBCHEM_OPENEYE_ISO_SMILES>
F[Al-3](F)(F)(F)(F)F

> <PUBCHEM_CACTVS_TPSA>
0

> <PUBCHEM_MONOISOTOPIC_WEIGHT>
140.972

> <PUBCHEM_TOTAL_CHARGE>
-3

> <PUBCHEM_HEAVY_ATOM_COUNT>
7

> <PUBCHEM_ATOM_DEF_STEREO_COUNT>
0

> <PUBCHEM_ATOM_UDEF_STEREO_COUNT>
0

> <PUBCHEM_BOND_DEF_STEREO_COUNT>
0

> <PUBCHEM_BOND_UDEF_STEREO_COUNT>
0

> <PUBCHEM_ISOTOPIC_ATOM_COUNT>
0

> <PUBCHEM_COMPONENT_COUNT>
1

> <PUBCHEM_CACTVS_TAUTO_COUNT>
1

> <PUBCHEM_COORDINATE_TYPE>
1
5
255

$$$$
