4349542
  -OEChem-10291712372D

  4  3  0     0  0  0  0  0  0999 V2000
    2.8660    0.2500    0.0000 Sb  0  0  0  0  0  0  0  0  0  0  0  0
    3.7320    0.7500    0.0000 O   0  5  0  0  0  0  0  0  0  0  0  0
    2.0000    0.7500    0.0000 O   0  0  0  0  0  0  0  0  0  0  0  0
    2.8660   -0.7500    0.0000 O   0  0  0  0  0  0  0  0  0  0  0  0
  1  2  1  0  0  0  0
  1  3  2  0  0  0  0
  1  4  2  0  0  0  0
M  CHG  1   2  -1
M  END
> <PUBCHEM_COMPOUND_CID>
4349542

> <PUBCHEM_COMPOUND_CANONICALIZED>
1

> <PUBCHEM_CACTVS_COMPLEXITY>
36.5

> <PUBCHEM_CACTVS_HBOND_ACCEPTOR>
3

> <PUBCHEM_CACTVS_HBOND_DONOR>
0

> <PUBCHEM_CACTVS_ROTATABLE_BOND>
0

> <PUBCHEM_CACTVS_SUBSKEYS>
AAADcQAAMAAAAAAAAABAAAAAAAAAAAAAAAAAAAAAAAAAAAAAAAAAAAAAAAAAAAAAAAAAAAAAAAAAAAAAAAAAAAAAAAAAAAAAAAAAAAAAAAAAAAAAAAAAAAAAAAAAAAAAAAAAAAAAAAAAAAAAAAAAAAAAAA==

> <PUBCHEM_IUPAC_OPENEYE_NAME>
oxido(dioxo)-$l^{5}-stibane

> <PUBCHEM_IUPAC_CAS_NAME>
oxido(dioxo)stiborane

> <PUBCHEM_IUPAC_NAME>
oxido(dioxo)-$l^{5}-stibane

> <PUBCHEM_IUPAC_SYSTEMATIC_NAME>
oxidanidyl-bis(oxidanylidene)-$l^{5}-stibane

> <PUBCHEM_IUPAC_TRADITIONAL_NAME>
diketo(oxido)stiborane

> <PUBCHEM_IUPAC_INCHI>
InChI=1S/3O.Sb/q;;-1;

> <PUBCHEM_IUPAC_INCHIKEY>
IVUSOGDLVUEEQB-UHFFFAOYSA-N

> <PUBCHEM_EXACT_MASS>
168.889

> <PUBCHEM_MOLECULAR_FORMULA>
O3Sb-

> <PUBCHEM_MOLECULAR_WEIGHT>
169.757

> <PUBCHEM_OPENEYE_CAN_SMILES>
[O-][Sb](=O)=O

> <PUBCHEM_OPENEYE_ISO_SMILES>
[O-][Sb](=O)=O

> <PUBCHEM_CACTVS_TPSA>
57.2

> <PUBCHEM_MONOISOTOPIC_WEIGHT>
168.889

> <PUBCHEM_TOTAL_CHARGE>
-1

> <PUBCHEM_HEAVY_ATOM_COUNT>
4

> <PUBCHEM_ATOM_DEF_STEREO_COUNT>
0

> <PUBCHEM_ATOM_UDEF_STEREO_COUNT>
0

> <PUBCHEM_BOND_DEF_STEREO_COUNT>
0

> <PUBCHEM_BOND_UDEF_STEREO_COUNT>
0

> <PUBCHEM_ISOTOPIC_ATOM_COUNT>
0

> <PUBCHEM_COMPONENT_COUNT>
1

> <PUBCHEM_CACTVS_TAUTO_COUNT>
1

> <PUBCHEM_COORDINATE_TYPE>
1
5
255

$$$$
