159397
  -OEChem-12112416502D

  5  0  0     0  0  0  0  0  0999 V2000
    2.8660    0.2500    0.0000 Cr  0  1  0  0  0  0  0  0  0  0  0  0
    4.5981    0.2500    0.0000 Cr  0  1  0  0  0  0  0  0  0  0  0  0
    3.7320    0.7500    0.0000 S   0  6  0  0  0  0  0  0  0  0  0  0
    2.0000    0.7500    0.0000 S   0  6  0  0  0  0  0  0  0  0  0  0
    2.8660   -0.7500    0.0000 S   0  6  0  0  0  0  0  0  0  0  0  0
M  CHG  5   1   3   2   3   3  -2   4  -2   5  -2
M  END
> <PUBCHEM_COMPOUND_CID>
159397

> <PUBCHEM_COMPOUND_CANONICALIZED>
1

> <PUBCHEM_CACTVS_COMPLEXITY>
0

> <PUBCHEM_CACTVS_HBOND_ACCEPTOR>
3

> <PUBCHEM_CACTVS_HBOND_DONOR>
0

> <PUBCHEM_CACTVS_ROTATABLE_BOND>
0

> <PUBCHEM_CACTVS_SUBSKEYS>
AAADcQAAAABgAACAAAAAAAAAAAAAAAAAAAAAAAAAAAAAAAAAAAAAAAAAAAAAAAAAAAAAAAAAAAAAAAAAAAAAAAAAAAAAAAAAAAAAAAAAAAAAAAAAAAAAAAAAAAAAAAAAAAAAAAAAAAAAAAAAAAAAAAAAAA==

> <PUBCHEM_IUPAC_OPENEYE_NAME>
dichromic;trisulfide

> <PUBCHEM_IUPAC_CAS_NAME>
chromium(3+);trisulfide

> <PUBCHEM_IUPAC_NAME_MARKUP>
chromium(3+);trisulfide

> <PUBCHEM_IUPAC_NAME>
chromium(3+);trisulfide

> <PUBCHEM_IUPAC_SYSTEMATIC_NAME>
chromium(3+);trisulfide

> <PUBCHEM_IUPAC_TRADITIONAL_NAME>
dichromic;trisulfide

> <PUBCHEM_IUPAC_INCHI>
InChI=1S/2Cr.3S/q2*+3;3*-2

> <PUBCHEM_IUPAC_INCHIKEY>
DBULDCSVZCUQIR-UHFFFAOYSA-N

> <PUBCHEM_EXACT_MASS>
199.797223

> <PUBCHEM_MOLECULAR_FORMULA>
Cr2S3

> <PUBCHEM_MOLECULAR_WEIGHT>
200.2

> <PUBCHEM_OPENEYE_CAN_SMILES>
[S-2].[S-2].[S-2].[Cr+3].[Cr+3]

> <PUBCHEM_OPENEYE_ISO_SMILES>
[S-2].[S-2].[S-2].[Cr+3].[Cr+3]

> <PUBCHEM_CACTVS_TPSA>
3

> <PUBCHEM_MONOISOTOPIC_WEIGHT>
199.797223

> <PUBCHEM_TOTAL_CHARGE>
0

> <PUBCHEM_HEAVY_ATOM_COUNT>
5

> <PUBCHEM_ATOM_DEF_STEREO_COUNT>
0

> <PUBCHEM_ATOM_UDEF_STEREO_COUNT>
0

> <PUBCHEM_BOND_DEF_STEREO_COUNT>
0

> <PUBCHEM_BOND_UDEF_STEREO_COUNT>
0

> <PUBCHEM_ISOTOPIC_ATOM_COUNT>
0

> <PUBCHEM_COMPONENT_COUNT>
5

> <PUBCHEM_CACTVS_TAUTO_COUNT>
-1

> <PUBCHEM_COORDINATE_TYPE>
1
5
255

$$$$
