129677176
  -OEChem-11082417182D

  7  4  0     0  0  0  0  0  0999 V2000
    4.5981   -0.2500    0.0000 S   0  0  0  0  0  0  0  0  0  0  0  0
    5.4641    0.2500    0.0000 S   0  0  0  0  0  0  0  0  0  0  0  0
    3.7320    0.2500    0.0000 S   0  0  0  0  0  0  0  0  0  0  0  0
    6.3301   -0.2500    0.0000 S   0  5  0  0  0  0  0  0  0  0  0  0
    2.8660   -0.2500    0.0000 S   0  5  0  0  0  0  0  0  0  0  0  0
    7.1962    0.2500    0.0000 Na  0  3  0  0  0  0  0  0  0  0  0  0
    2.0000    0.2500    0.0000 Na  0  3  0  0  0  0  0  0  0  0  0  0
  1  2  1  0  0  0  0
  1  3  1  0  0  0  0
  2  4  1  0  0  0  0
  3  5  1  0  0  0  0
M  CHG  4   4  -1   5  -1   6   1   7   1
M  END
> <PUBCHEM_COMPOUND_CID>
129677176

> <PUBCHEM_COMPOUND_CANONICALIZED>
1

> <PUBCHEM_CACTVS_COMPLEXITY>
13.6

> <PUBCHEM_CACTVS_HBOND_ACCEPTOR>
5

> <PUBCHEM_CACTVS_HBOND_DONOR>
0

> <PUBCHEM_CACTVS_ROTATABLE_BOND>
2

> <PUBCHEM_CACTVS_SUBSKEYS>
AAADcQAAADBwAAAAAAAAAAAAAAAAAAAAAAAAAAAAAAAAAAAAAAAAAAAAAAAAAAAAAAAAAAAAAAAAAAAAAAAAAAAAAAAAAAAAAAAAAAAAAAAAAAAAAAAAAAAAAAAAAAAAAAAAAAAAAAAAAAAAAAAAAAAAAA==

> <PUBCHEM_IUPAC_INCHI>
InChI=1S/2Na.H2S5/c;;1-3-5-4-2/h;;1-2H/q2*+1;/p-2

> <PUBCHEM_IUPAC_INCHIKEY>
WMEKSYHDIDMJMC-UHFFFAOYSA-L

> <PUBCHEM_EXACT_MASS>
205.83989443

> <PUBCHEM_MOLECULAR_FORMULA>
Na2S5

> <PUBCHEM_MOLECULAR_WEIGHT>
206.3

> <PUBCHEM_OPENEYE_CAN_SMILES>
[Na+].[Na+].[S-]SSS[S-]

> <PUBCHEM_OPENEYE_ISO_SMILES>
[Na+].[Na+].[S-]SSS[S-]

> <PUBCHEM_CACTVS_TPSA>
77.9

> <PUBCHEM_MONOISOTOPIC_WEIGHT>
205.83989443

> <PUBCHEM_TOTAL_CHARGE>
0

> <PUBCHEM_HEAVY_ATOM_COUNT>
7

> <PUBCHEM_ATOM_DEF_STEREO_COUNT>
0

> <PUBCHEM_ATOM_UDEF_STEREO_COUNT>
0

> <PUBCHEM_BOND_DEF_STEREO_COUNT>
0

> <PUBCHEM_BOND_UDEF_STEREO_COUNT>
0

> <PUBCHEM_ISOTOPIC_ATOM_COUNT>
0

> <PUBCHEM_COMPONENT_COUNT>
3

> <PUBCHEM_CACTVS_TAUTO_COUNT>
-1

> <PUBCHEM_NONSTANDARDBOND>
4  6  7
5  7  7

> <PUBCHEM_COORDINATE_TYPE>
1
5
255

$$$$
