9816051
  -OEChem-12092418042D

 15  8  0     0  0  0  0  0  0999 V2000
    0.0000    3.7500    0.0000 Fe  0  0  0  0  0  0  0  0  0  0  0  0
    2.5000    3.7500    0.0000 Fe  0  0  0  0  0  0  0  0  0  0  0  0
    5.0000    3.7500    0.0000 Fe  0  0  0  0  0  0  0  0  0  0  0  0
    8.0369    0.0000    0.0000 O   0  0  0  0  0  0  0  0  0  0  0  0
    8.0369    2.5000    0.0000 O   0  0  0  0  0  0  0  0  0  0  0  0
    8.0369    5.0000    0.0000 O   0  0  0  0  0  0  0  0  0  0  0  0
    8.0369    7.5000    0.0000 O   0  0  0  0  0  0  0  0  0  0  0  0
    8.5739    0.3100    0.0000 H   0  0  0  0  0  0  0  0  0  0  0  0
    7.5000    0.3100    0.0000 H   0  0  0  0  0  0  0  0  0  0  0  0
    8.5739    2.8100    0.0000 H   0  0  0  0  0  0  0  0  0  0  0  0
    7.5000    2.8100    0.0000 H   0  0  0  0  0  0  0  0  0  0  0  0
    8.5739    5.3100    0.0000 H   0  0  0  0  0  0  0  0  0  0  0  0
    7.5000    5.3100    0.0000 H   0  0  0  0  0  0  0  0  0  0  0  0
    8.5739    7.8100    0.0000 H   0  0  0  0  0  0  0  0  0  0  0  0
    7.5000    7.8100    0.0000 H   0  0  0  0  0  0  0  0  0  0  0  0
  4  8  1  0  0  0  0
  4  9  1  0  0  0  0
  5 10  1  0  0  0  0
  5 11  1  0  0  0  0
  6 12  1  0  0  0  0
  6 13  1  0  0  0  0
  7 14  1  0  0  0  0
  7 15  1  0  0  0  0
M  END
> <PUBCHEM_COMPOUND_CID>
9816051

> <PUBCHEM_COMPOUND_CANONICALIZED>
1

> <PUBCHEM_CACTVS_COMPLEXITY>
0

> <PUBCHEM_CACTVS_HBOND_ACCEPTOR>
4

> <PUBCHEM_CACTVS_HBOND_DONOR>
4

> <PUBCHEM_CACTVS_ROTATABLE_BOND>
0

> <PUBCHEM_CACTVS_SUBSKEYS>
AAADccAAOAAAAAAgAAAAAAAAAAAAAAAAAAAAAAAAAAAAAAAAAAAAAAAACAAAAAAAAAAAAAAAAAAAAAAAAAAAAAAAAAAAAAAAAAAAAAAAAAAAAAAAAAAAAAAAAAAAAAAAAAAAAAAAAAAAAAAAAAAAAAAAAA==

> <PUBCHEM_IUPAC_OPENEYE_NAME>
iron;tetrahydrate

> <PUBCHEM_IUPAC_CAS_NAME>
iron;tetrahydrate

> <PUBCHEM_IUPAC_NAME_MARKUP>
iron;tetrahydrate

> <PUBCHEM_IUPAC_NAME>
iron;tetrahydrate

> <PUBCHEM_IUPAC_SYSTEMATIC_NAME>
iron;tetrahydrate

> <PUBCHEM_IUPAC_TRADITIONAL_NAME>
iron;tetrahydrate

> <PUBCHEM_IUPAC_INCHI>
InChI=1S/3Fe.4H2O/h;;;4*1H2

> <PUBCHEM_IUPAC_INCHIKEY>
IKHQQBKIDMRMEU-UHFFFAOYSA-N

> <PUBCHEM_EXACT_MASS>
239.847065

> <PUBCHEM_MOLECULAR_FORMULA>
Fe3H8O4

> <PUBCHEM_MOLECULAR_WEIGHT>
239.60

> <PUBCHEM_OPENEYE_CAN_SMILES>
O.O.O.O.[Fe].[Fe].[Fe]

> <PUBCHEM_OPENEYE_ISO_SMILES>
O.O.O.O.[Fe].[Fe].[Fe]

> <PUBCHEM_CACTVS_TPSA>
4

> <PUBCHEM_MONOISOTOPIC_WEIGHT>
239.847065

> <PUBCHEM_TOTAL_CHARGE>
0

> <PUBCHEM_HEAVY_ATOM_COUNT>
7

> <PUBCHEM_ATOM_DEF_STEREO_COUNT>
0

> <PUBCHEM_ATOM_UDEF_STEREO_COUNT>
0

> <PUBCHEM_BOND_DEF_STEREO_COUNT>
0

> <PUBCHEM_BOND_UDEF_STEREO_COUNT>
0

> <PUBCHEM_ISOTOPIC_ATOM_COUNT>
0

> <PUBCHEM_COMPONENT_COUNT>
7

> <PUBCHEM_CACTVS_TAUTO_COUNT>
-1

> <PUBCHEM_COORDINATE_TYPE>
1
5
255

$$$$
