16685273
  -OEChem-11082417032D

  5  4  0     0  0  0  0  0  0999 V2000
    4.5981    0.2500    0.0000 Sb  0  0  0  0  0  0  0  0  0  0  0  0
    2.8660    0.2500    0.0000 Sb  0  0  0  0  0  0  0  0  0  0  0  0
    3.7320   -0.2500    0.0000 S   0  0  0  0  0  0  0  0  0  0  0  0
    5.4641   -0.2500    0.0000 S   0  0  0  0  0  0  0  0  0  0  0  0
    2.0000   -0.2500    0.0000 S   0  0  0  0  0  0  0  0  0  0  0  0
  1  3  1  0  0  0  0
  1  4  2  0  0  0  0
  2  3  1  0  0  0  0
  2  5  2  0  0  0  0
M  END
> <PUBCHEM_COMPOUND_CID>
16685273

> <PUBCHEM_COMPOUND_CANONICALIZED>
1

> <PUBCHEM_CACTVS_COMPLEXITY>
34.2

> <PUBCHEM_CACTVS_HBOND_ACCEPTOR>
3

> <PUBCHEM_CACTVS_HBOND_DONOR>
0

> <PUBCHEM_CACTVS_ROTATABLE_BOND>
0

> <PUBCHEM_CACTVS_SUBSKEYS>
AAADcQAAAABgAAAAAABAAAAAAAAAAAAAAAAAAAAAAAAAAAAAAAAAAAAAAAAAAAAAAAAAAAAAAAAAAAAAAAAAAAAAAAAAAAAAAAAAAAAAAAAAAAAAAAAAAAAAAAAAAAAAAAAAAAAAAAAAAAAAAAAAAAAAAA==

> <PUBCHEM_IUPAC_OPENEYE_NAME>
thioxo(thioxostibanylsulfanyl)stibane

> <PUBCHEM_IUPAC_CAS_NAME>
sulfanylidene-(sulfanylidenestibinylthio)stibine

> <PUBCHEM_IUPAC_NAME_MARKUP>
sulfanylidene(sulfanylidenestibanylsulfanyl)stibane

> <PUBCHEM_IUPAC_NAME>
sulfanylidene(sulfanylidenestibanylsulfanyl)stibane

> <PUBCHEM_IUPAC_SYSTEMATIC_NAME>
sulfanylidene(sulfanylidenestibanylsulfanyl)stibane

> <PUBCHEM_IUPAC_TRADITIONAL_NAME>
thioxo-(thioxostibinylthio)stibine

> <PUBCHEM_IUPAC_INCHI>
InChI=1S/3S.2Sb

> <PUBCHEM_IUPAC_INCHIKEY>
IHBMMJGTJFPEQY-UHFFFAOYSA-N

> <PUBCHEM_EXACT_MASS>
339.72424

> <PUBCHEM_MOLECULAR_FORMULA>
S3Sb2

> <PUBCHEM_MOLECULAR_WEIGHT>
339.7

> <PUBCHEM_OPENEYE_CAN_SMILES>
S=[Sb]S[Sb]=S

> <PUBCHEM_OPENEYE_ISO_SMILES>
S=[Sb]S[Sb]=S

> <PUBCHEM_CACTVS_TPSA>
89.5

> <PUBCHEM_MONOISOTOPIC_WEIGHT>
337.72384

> <PUBCHEM_TOTAL_CHARGE>
0

> <PUBCHEM_HEAVY_ATOM_COUNT>
5

> <PUBCHEM_ATOM_DEF_STEREO_COUNT>
0

> <PUBCHEM_ATOM_UDEF_STEREO_COUNT>
0

> <PUBCHEM_BOND_DEF_STEREO_COUNT>
0

> <PUBCHEM_BOND_UDEF_STEREO_COUNT>
0

> <PUBCHEM_ISOTOPIC_ATOM_COUNT>
0

> <PUBCHEM_COMPONENT_COUNT>
1

> <PUBCHEM_CACTVS_TAUTO_COUNT>
-1

> <PUBCHEM_COORDINATE_TYPE>
1
5
255

$$$$
