14945
  -OEChem-12092418022D

  2  1  0     0  0  0  0  0  0999 V2000
    3.0000    0.0000    0.0000 Fe  0  0  0  0  0  0  0  0  0  0  0  0
    2.0000    0.0000    0.0000 O   0  0  0  0  0  0  0  0  0  0  0  0
  1  2  2  0  0  0  0
M  END
> <PUBCHEM_COMPOUND_CID>
14945

> <PUBCHEM_COMPOUND_CANONICALIZED>
1

> <PUBCHEM_CACTVS_COMPLEXITY>
2

> <PUBCHEM_CACTVS_HBOND_ACCEPTOR>
1

> <PUBCHEM_CACTVS_HBOND_DONOR>
0

> <PUBCHEM_CACTVS_ROTATABLE_BOND>
0

> <PUBCHEM_CACTVS_SUBSKEYS>
AAADcQAAIAAAAAAgAAAAAAAAAAAAAAAAAAAAAAAAAAAAAAAAAAAAAAAAAAAAAAAAAAAAAAAAAAAAAAAAAAAAAAAAAAAAAAAAAAAAAAAAAAAAAAAAAAAAAAAAAAAAAAAAAAAAAAAAAAAAAAAAAAAAAAAAAA==

> <PUBCHEM_IUPAC_OPENEYE_NAME>
oxoiron

> <PUBCHEM_IUPAC_CAS_NAME>
oxoiron

> <PUBCHEM_IUPAC_NAME_MARKUP>
oxoiron

> <PUBCHEM_IUPAC_NAME>
oxoiron

> <PUBCHEM_IUPAC_SYSTEMATIC_NAME>
oxidanylideneiron

> <PUBCHEM_IUPAC_TRADITIONAL_NAME>
ketoiron

> <PUBCHEM_IUPAC_INCHI>
InChI=1S/Fe.O

> <PUBCHEM_IUPAC_INCHIKEY>
UQSXHKLRYXJYBZ-UHFFFAOYSA-N

> <PUBCHEM_EXACT_MASS>
71.929850

> <PUBCHEM_MOLECULAR_FORMULA>
FeO

> <PUBCHEM_MOLECULAR_WEIGHT>
71.84

> <PUBCHEM_OPENEYE_CAN_SMILES>
O=[Fe]

> <PUBCHEM_OPENEYE_ISO_SMILES>
O=[Fe]

> <PUBCHEM_CACTVS_TPSA>
17.1

> <PUBCHEM_MONOISOTOPIC_WEIGHT>
71.929850

> <PUBCHEM_TOTAL_CHARGE>
0

> <PUBCHEM_HEAVY_ATOM_COUNT>
2

> <PUBCHEM_ATOM_DEF_STEREO_COUNT>
0

> <PUBCHEM_ATOM_UDEF_STEREO_COUNT>
0

> <PUBCHEM_BOND_DEF_STEREO_COUNT>
0

> <PUBCHEM_BOND_UDEF_STEREO_COUNT>
0

> <PUBCHEM_ISOTOPIC_ATOM_COUNT>
0

> <PUBCHEM_COMPONENT_COUNT>
1

> <PUBCHEM_CACTVS_TAUTO_COUNT>
-1

> <PUBCHEM_COORDINATE_TYPE>
1
5
255

$$$$
