61635
  -OEChem-12131700482D

 13  9  0     0  0  0  0  0  0999 V2000
    0.6160    0.5000    0.0000 Ga  0  1  0  0  0  0  0  0  0  0  0  0
    5.4641    1.5000    0.0000 O   0  5  0  0  0  0  0  0  0  0  0  0
    5.4641    5.0000    0.0000 O   0  5  0  0  0  0  0  0  0  0  0  0
    3.7320    5.0000    0.0000 O   0  5  0  0  0  0  0  0  0  0  0  0
    3.7320    1.5000    0.0000 O   0  5  0  0  0  0  0  0  0  0  0  0
    1.7320    4.5000    0.0000 O   0  5  0  0  0  0  0  0  0  0  0  0
    0.0000    4.5000    0.0000 O   0  5  0  0  0  0  0  0  0  0  0  0
    4.5981    3.5000    0.0000 O   0  0  0  0  0  0  0  0  0  0  0  0
    4.5981    0.0000    0.0000 O   0  0  0  0  0  0  0  0  0  0  0  0
    0.8660    3.0000    0.0000 O   0  0  0  0  0  0  0  0  0  0  0  0
    4.5981    1.0000    0.0000 N   0  3  0  0  0  0  0  0  0  0  0  0
    4.5981    4.5000    0.0000 N   0  3  0  0  0  0  0  0  0  0  0  0
    0.8660    4.0000    0.0000 N   0  3  0  0  0  0  0  0  0  0  0  0
  2 11  1  0  0  0  0
  3 12  1  0  0  0  0
  4 12  1  0  0  0  0
  5 11  1  0  0  0  0
  6 13  1  0  0  0  0
  7 13  1  0  0  0  0
  8 12  2  0  0  0  0
  9 11  2  0  0  0  0
 10 13  2  0  0  0  0
M  CHG  8   1   3   2  -1   3  -1   4  -1   5  -1   6  -1   7  -1  11   1
M  CHG  2  12   1  13   1
M  END
> <PUBCHEM_COMPOUND_CID>
61635

> <PUBCHEM_COMPOUND_CANONICALIZED>
1

> <PUBCHEM_CACTVS_COMPLEXITY>
18.8

> <PUBCHEM_CACTVS_HBOND_ACCEPTOR>
9

> <PUBCHEM_CACTVS_HBOND_DONOR>
0

> <PUBCHEM_CACTVS_ROTATABLE_BOND>
0

> <PUBCHEM_CACTVS_SUBSKEYS>
AAADcQADPAAAAAABAAAAAAAAAAAAAAAAAAAAAAAAAAAAAAAAAAAAAAAEAAAAAAAAAAAAAAAAQAABAAAAAQAAAAAAAAAAAAAAAAAAAAAAAAAAAAAAAAAAAAAAAAAAAAAAAAAAAAAAAAAAAAAAAAAAAAAAAA==

> <PUBCHEM_IUPAC_OPENEYE_NAME>
gallium;trinitrate

> <PUBCHEM_IUPAC_CAS_NAME>
gallium;trinitrate

> <PUBCHEM_IUPAC_NAME>
gallium;trinitrate

> <PUBCHEM_IUPAC_SYSTEMATIC_NAME>
gallium;trinitrate

> <PUBCHEM_IUPAC_TRADITIONAL_NAME>
gallium;trinitrate

> <PUBCHEM_IUPAC_INCHI>
InChI=1S/Ga.3NO3/c;3*2-1(3)4/q+3;3*-1

> <PUBCHEM_IUPAC_INCHIKEY>
CHPZKNULDCNCBW-UHFFFAOYSA-N

> <PUBCHEM_EXACT_MASS>
254.889

> <PUBCHEM_MOLECULAR_FORMULA>
GaN3O9

> <PUBCHEM_MOLECULAR_WEIGHT>
255.735

> <PUBCHEM_OPENEYE_CAN_SMILES>
[N+](=O)([O-])[O-].[N+](=O)([O-])[O-].[N+](=O)([O-])[O-].[Ga+3]

> <PUBCHEM_OPENEYE_ISO_SMILES>
[N+](=O)([O-])[O-].[N+](=O)([O-])[O-].[N+](=O)([O-])[O-].[Ga+3]

> <PUBCHEM_CACTVS_TPSA>
189

> <PUBCHEM_MONOISOTOPIC_WEIGHT>
254.889

> <PUBCHEM_TOTAL_CHARGE>
0

> <PUBCHEM_HEAVY_ATOM_COUNT>
13

> <PUBCHEM_ATOM_DEF_STEREO_COUNT>
0

> <PUBCHEM_ATOM_UDEF_STEREO_COUNT>
0

> <PUBCHEM_BOND_DEF_STEREO_COUNT>
0

> <PUBCHEM_BOND_UDEF_STEREO_COUNT>
0

> <PUBCHEM_ISOTOPIC_ATOM_COUNT>
0

> <PUBCHEM_COMPONENT_COUNT>
4

> <PUBCHEM_CACTVS_TAUTO_COUNT>
1

> <PUBCHEM_COORDINATE_TYPE>
1
5
255

$$$$
