16702985
  -OEChem-11142417292D

 10  6  0     0  0  0  0  0  0999 V2000
    0.8660    1.0000    0.0000 Al  0  7  0  0  0  0  0  0  0  0  0  0
    1.7320    1.5000    0.0000 F   0  0  0  0  0  0  0  0  0  0  0  0
    0.0000    0.5000    0.0000 F   0  0  0  0  0  0  0  0  0  0  0  0
    0.0000    1.5000    0.0000 F   0  0  0  0  0  0  0  0  0  0  0  0
    0.8660    0.0000    0.0000 F   0  0  0  0  0  0  0  0  0  0  0  0
    0.8660    2.0000    0.0000 F   0  0  0  0  0  0  0  0  0  0  0  0
    1.7320    0.5000    0.0000 F   0  0  0  0  0  0  0  0  0  0  0  0
    3.7320    0.7500    0.0000 Li  0  3  0  0  0  0  0  0  0  0  0  0
    3.7320    3.2500    0.0000 Li  0  3  0  0  0  0  0  0  0  0  0  0
    0.6160    4.0000    0.0000 Li  0  3  0  0  0  0  0  0  0  0  0  0
  1  2  1  0  0  0  0
  1  3  1  0  0  0  0
  1  4  1  0  0  0  0
  1  5  1  0  0  0  0
  1  6  1  0  0  0  0
  1  7  1  0  0  0  0
M  CHG  4   1  -3   8   1   9   1  10   1
M  END
> <PUBCHEM_COMPOUND_CID>
16702985

> <PUBCHEM_COMPOUND_CANONICALIZED>
1

> <PUBCHEM_CACTVS_COMPLEXITY>
62.7

> <PUBCHEM_CACTVS_HBOND_ACCEPTOR>
7

> <PUBCHEM_CACTVS_HBOND_DONOR>
0

> <PUBCHEM_CACTVS_ROTATABLE_BOND>
0

> <PUBCHEM_CACTVS_SUBSKEYS>
AAADcQwAAcAAABAAAAAAAAAAAAAAAAAAAAAAAAAAAAAAAAAAAAAAAAAAAAAAAAAAAAAAAAAAAAAAAAAAAAAAAAAAAAAAAAAAAAAAAAAAAAAAAAAAAAAAAAAAAAAAAAAAAAAAAAAAAAAAAAAAAAAAAAAAAA==

> <PUBCHEM_IUPAC_OPENEYE_NAME>
trilithium;hexafluoroaluminum(3-)

> <PUBCHEM_IUPAC_CAS_NAME>
trilithium;hexafluoroaluminum(3-)

> <PUBCHEM_IUPAC_NAME_MARKUP>
trilithium;hexafluoroaluminum(3-)

> <PUBCHEM_IUPAC_NAME>
trilithium;hexafluoroaluminum(3-)

> <PUBCHEM_IUPAC_SYSTEMATIC_NAME>
trilithium;hexakis(fluoranyl)aluminum(3-)

> <PUBCHEM_IUPAC_TRADITIONAL_NAME>
trilithium;hexafluoroaluminum(3-)

> <PUBCHEM_IUPAC_INCHI>
InChI=1S/Al.6FH.3Li/h;6*1H;;;/q+3;;;;;;;3*+1/p-6

> <PUBCHEM_IUPAC_INCHIKEY>
VRSRNLHMYUACMN-UHFFFAOYSA-H

> <PUBCHEM_EXACT_MASS>
162.0199677

> <PUBCHEM_MOLECULAR_FORMULA>
AlF6Li3

> <PUBCHEM_MOLECULAR_WEIGHT>
161.9

> <PUBCHEM_OPENEYE_CAN_SMILES>
[Li+].[Li+].[Li+].F[Al-3](F)(F)(F)(F)F

> <PUBCHEM_OPENEYE_ISO_SMILES>
[Li+].[Li+].[Li+].F[Al-3](F)(F)(F)(F)F

> <PUBCHEM_CACTVS_TPSA>
0

> <PUBCHEM_MONOISOTOPIC_WEIGHT>
162.0199677

> <PUBCHEM_TOTAL_CHARGE>
0

> <PUBCHEM_HEAVY_ATOM_COUNT>
10

> <PUBCHEM_ATOM_DEF_STEREO_COUNT>
0

> <PUBCHEM_ATOM_UDEF_STEREO_COUNT>
0

> <PUBCHEM_BOND_DEF_STEREO_COUNT>
0

> <PUBCHEM_BOND_UDEF_STEREO_COUNT>
0

> <PUBCHEM_ISOTOPIC_ATOM_COUNT>
0

> <PUBCHEM_COMPONENT_COUNT>
4

> <PUBCHEM_CACTVS_TAUTO_COUNT>
-1

> <PUBCHEM_COORDINATE_TYPE>
1
5
255

$$$$
