19753737
  -OEChem-11082416332D

  4  2  0     0  0  0  0  0  0999 V2000
    2.0000    0.2500    0.0000 Tl  0  3  0  0  0  0  0  0  0  0  0  0
    2.8660   -0.2500    0.0000 O   0  5  0  0  0  0  0  0  0  0  0  0
    4.5981   -0.2500    0.0000 O   0  0  0  0  0  0  0  0  0  0  0  0
    3.7320    0.2500    0.0000 N   0  0  0  0  0  0  0  0  0  0  0  0
  2  4  1  0  0  0  0
  3  4  2  0  0  0  0
M  CHG  2   1   1   2  -1
M  END
> <PUBCHEM_COMPOUND_CID>
19753737

> <PUBCHEM_COMPOUND_CANONICALIZED>
1

> <PUBCHEM_CACTVS_COMPLEXITY>
7.5

> <PUBCHEM_CACTVS_HBOND_ACCEPTOR>
3

> <PUBCHEM_CACTVS_HBOND_DONOR>
0

> <PUBCHEM_CACTVS_ROTATABLE_BOND>
0

> <PUBCHEM_CACTVS_SUBSKEYS>
AAADcQACMAAAAAAAAAAAAIAAAAAAAAAAAAAAAAAAAAAAAAAAAAAAAAAEAAAAAAAAAAAAAAAAQAABAAAAAQAAAAAAAAAAAAAAAAAAAAAAAAAAAAAAAAAAAAAAAAAAAAAAAAAAAAAAAAAAAAAAAAAAAAAAAA==

> <PUBCHEM_IUPAC_OPENEYE_NAME>
thallium(1+);nitrite

> <PUBCHEM_IUPAC_CAS_NAME>
thallium(1+);nitrite

> <PUBCHEM_IUPAC_NAME_MARKUP>
thallium(1+);nitrite

> <PUBCHEM_IUPAC_NAME>
thallium(1+);nitrite

> <PUBCHEM_IUPAC_SYSTEMATIC_NAME>
thallium(1+);nitrite

> <PUBCHEM_IUPAC_TRADITIONAL_NAME>
thallium(1+);nitrite

> <PUBCHEM_IUPAC_INCHI>
InChI=1S/HNO2.Tl/c2-1-3;/h(H,2,3);/q;+1/p-1

> <PUBCHEM_IUPAC_INCHIKEY>
VYFYHCGYMFYTSG-UHFFFAOYSA-M

> <PUBCHEM_EXACT_MASS>
250.96733

> <PUBCHEM_MOLECULAR_FORMULA>
NO2Tl

> <PUBCHEM_MOLECULAR_WEIGHT>
250.389

> <PUBCHEM_OPENEYE_CAN_SMILES>
N(=O)[O-].[Tl+]

> <PUBCHEM_OPENEYE_ISO_SMILES>
N(=O)[O-].[Tl+]

> <PUBCHEM_CACTVS_TPSA>
52.5

> <PUBCHEM_MONOISOTOPIC_WEIGHT>
250.96733

> <PUBCHEM_TOTAL_CHARGE>
0

> <PUBCHEM_HEAVY_ATOM_COUNT>
4

> <PUBCHEM_ATOM_DEF_STEREO_COUNT>
0

> <PUBCHEM_ATOM_UDEF_STEREO_COUNT>
0

> <PUBCHEM_BOND_DEF_STEREO_COUNT>
0

> <PUBCHEM_BOND_UDEF_STEREO_COUNT>
0

> <PUBCHEM_ISOTOPIC_ATOM_COUNT>
0

> <PUBCHEM_COMPONENT_COUNT>
2

> <PUBCHEM_CACTVS_TAUTO_COUNT>
-1

> <PUBCHEM_COORDINATE_TYPE>
1
5
255

$$$$
