28127
  -OEChem-12131710412D

  9  6  0     0  0  0  0  0  0999 V2000
    3.3660    1.0000    0.0000 Si  0  6  0  0  0  0  0  0  0  0  0  0
    0.0000    2.0000    0.0000 Na  0  3  0  0  0  0  0  0  0  0  0  0
    3.1160    4.0000    0.0000 Na  0  3  0  0  0  0  0  0  0  0  0  0
    4.2320    1.5000    0.0000 F   0  0  0  0  0  0  0  0  0  0  0  0
    2.5000    0.5000    0.0000 F   0  0  0  0  0  0  0  0  0  0  0  0
    2.5000    1.5000    0.0000 F   0  0  0  0  0  0  0  0  0  0  0  0
    3.3660    0.0000    0.0000 F   0  0  0  0  0  0  0  0  0  0  0  0
    3.3660    2.0000    0.0000 F   0  0  0  0  0  0  0  0  0  0  0  0
    4.2320    0.5000    0.0000 F   0  0  0  0  0  0  0  0  0  0  0  0
  1  4  1  0  0  0  0
  1  5  1  0  0  0  0
  1  6  1  0  0  0  0
  1  7  1  0  0  0  0
  1  8  1  0  0  0  0
  1  9  1  0  0  0  0
M  CHG  3   1  -2   2   1   3   1
M  END
> <PUBCHEM_COMPOUND_CID>
28127

> <PUBCHEM_COMPOUND_CANONICALIZED>
1

> <PUBCHEM_CACTVS_COMPLEXITY>
62.7

> <PUBCHEM_CACTVS_HBOND_ACCEPTOR>
7

> <PUBCHEM_CACTVS_HBOND_DONOR>
0

> <PUBCHEM_CACTVS_ROTATABLE_BOND>
0

> <PUBCHEM_CACTVS_SUBSKEYS>
AAADcQAAAfgAAAAAAAAAAAAAAAAAAAAAAAAAAAAAAAAAAAAAAAAAAAAAAAAAAAAAAAAAAAAAAAAAAAAAAAAAAAAAAAAAAAAAAAAAAAAAAAAAAAAAAAAAAAAAAAAAAAAAAAAAAAAAAAAAAAAAAAAAAAAAAA==

> <PUBCHEM_IUPAC_OPENEYE_NAME>
disodium;hexafluorosilicon(2-)

> <PUBCHEM_IUPAC_CAS_NAME>
disodium;hexafluorosilicon(2-)

> <PUBCHEM_IUPAC_NAME>
disodium;hexafluorosilicon(2-)

> <PUBCHEM_IUPAC_SYSTEMATIC_NAME>
disodium;hexakis(fluoranyl)silicon(2-)

> <PUBCHEM_IUPAC_TRADITIONAL_NAME>
disodium;hexafluorosilicon(2-)

> <PUBCHEM_IUPAC_INCHI>
InChI=1S/F6Si.2Na/c1-7(2,3,4,5)6;;/q-2;2*+1

> <PUBCHEM_IUPAC_INCHIKEY>
TWGUZEUZLCYTCG-UHFFFAOYSA-N

> <PUBCHEM_EXACT_MASS>
187.947

> <PUBCHEM_MOLECULAR_FORMULA>
F6Na2Si

> <PUBCHEM_MOLECULAR_WEIGHT>
188.055

> <PUBCHEM_OPENEYE_CAN_SMILES>
F[Si-2](F)(F)(F)(F)F.[Na+].[Na+]

> <PUBCHEM_OPENEYE_ISO_SMILES>
F[Si-2](F)(F)(F)(F)F.[Na+].[Na+]

> <PUBCHEM_CACTVS_TPSA>
0

> <PUBCHEM_MONOISOTOPIC_WEIGHT>
187.947

> <PUBCHEM_TOTAL_CHARGE>
0

> <PUBCHEM_HEAVY_ATOM_COUNT>
9

> <PUBCHEM_ATOM_DEF_STEREO_COUNT>
0

> <PUBCHEM_ATOM_UDEF_STEREO_COUNT>
0

> <PUBCHEM_BOND_DEF_STEREO_COUNT>
0

> <PUBCHEM_BOND_UDEF_STEREO_COUNT>
0

> <PUBCHEM_ISOTOPIC_ATOM_COUNT>
0

> <PUBCHEM_COMPONENT_COUNT>
3

> <PUBCHEM_CACTVS_TAUTO_COUNT>
1

> <PUBCHEM_COORDINATE_TYPE>
1
5
255

$$$$
