500783720
  -OEChem-12092411312D

 39 28  0     0  0  0  0  0  0999 V2000
    3.0739    0.0000    0.0000 Fe  0  2  0  0  0  0  0  0  0  0  0  0
    4.0739    4.8660    0.0000 S   0  0  0  0  0  0  0  0  0  0  0  0
    4.0739    1.0000    0.0000 S   0  0  0  0  0  0  0  0  0  0  0  0
    3.2078    4.3660    0.0000 O   0  5  0  0  0  0  0  0  0  0  0  0
    3.5739    5.7320    0.0000 O   0  5  0  0  0  0  0  0  0  0  0  0
    3.0739    1.0000    0.0000 O   0  5  0  0  0  0  0  0  0  0  0  0
    4.0739    0.0000    0.0000 O   0  5  0  0  0  0  0  0  0  0  0  0
    4.9399    5.3660    0.0000 O   0  0  0  0  0  0  0  0  0  0  0  0
    4.5739    4.0000    0.0000 O   0  0  0  0  0  0  0  0  0  0  0  0
    5.0739    1.0000    0.0000 O   0  0  0  0  0  0  0  0  0  0  0  0
    4.0739    2.0000    0.0000 O   0  0  0  0  0  0  0  0  0  0  0  0
   13.7586    6.9399    0.0000 O   0  0  0  0  0  0  0  0  0  0  0  0
   10.6847    6.9399    0.0000 O   0  0  0  0  0  0  0  0  0  0  0  0
    0.5369    8.1899    0.0000 O   0  0  0  0  0  0  0  0  0  0  0  0
    4.0739    7.7320    0.0000 O   0  0  0  0  0  0  0  0  0  0  0  0
    7.6108    6.9399    0.0000 O   0  0  0  0  0  0  0  0  0  0  0  0
    0.5369    5.6899    0.0000 O   0  0  0  0  0  0  0  0  0  0  0  0
    4.0739   10.7690    0.0000 N   0  3  0  0  0  0  0  0  0  0  0  0
    4.0739   13.8429    0.0000 N   0  3  0  0  0  0  0  0  0  0  0  0
    4.6108   11.0790    0.0000 H   0  0  0  0  0  0  0  0  0  0  0  0
    3.5369   10.4590    0.0000 H   0  0  0  0  0  0  0  0  0  0  0  0
    3.7639   11.3059    0.0000 H   0  0  0  0  0  0  0  0  0  0  0  0
    4.3839   10.2321    0.0000 H   0  0  0  0  0  0  0  0  0  0  0  0
    4.6108   14.1529    0.0000 H   0  0  0  0  0  0  0  0  0  0  0  0
    3.5369   13.5329    0.0000 H   0  0  0  0  0  0  0  0  0  0  0  0
    3.7639   14.3798    0.0000 H   0  0  0  0  0  0  0  0  0  0  0  0
    4.3839   13.3059    0.0000 H   0  0  0  0  0  0  0  0  0  0  0  0
   14.2955    7.2499    0.0000 H   0  0  0  0  0  0  0  0  0  0  0  0
   13.2216    7.2499    0.0000 H   0  0  0  0  0  0  0  0  0  0  0  0
   11.2216    7.2499    0.0000 H   0  0  0  0  0  0  0  0  0  0  0  0
   10.1477    7.2499    0.0000 H   0  0  0  0  0  0  0  0  0  0  0  0
    1.0739    8.4999    0.0000 H   0  0  0  0  0  0  0  0  0  0  0  0
    0.0000    8.4999    0.0000 H   0  0  0  0  0  0  0  0  0  0  0  0
    4.6108    8.0420    0.0000 H   0  0  0  0  0  0  0  0  0  0  0  0
    3.5369    8.0420    0.0000 H   0  0  0  0  0  0  0  0  0  0  0  0
    8.1477    7.2499    0.0000 H   0  0  0  0  0  0  0  0  0  0  0  0
    7.0739    7.2499    0.0000 H   0  0  0  0  0  0  0  0  0  0  0  0
    1.0739    5.9999    0.0000 H   0  0  0  0  0  0  0  0  0  0  0  0
    0.0000    5.9999    0.0000 H   0  0  0  0  0  0  0  0  0  0  0  0
  2  4  1  0  0  0  0
  2  5  1  0  0  0  0
  2  8  2  0  0  0  0
  2  9  2  0  0  0  0
  3  6  1  0  0  0  0
  3  7  1  0  0  0  0
  3 10  2  0  0  0  0
  3 11  2  0  0  0  0
 12 28  1  0  0  0  0
 12 29  1  0  0  0  0
 13 30  1  0  0  0  0
 13 31  1  0  0  0  0
 14 32  1  0  0  0  0
 14 33  1  0  0  0  0
 15 34  1  0  0  0  0
 15 35  1  0  0  0  0
 16 36  1  0  0  0  0
 16 37  1  0  0  0  0
 17 38  1  0  0  0  0
 17 39  1  0  0  0  0
 18 20  1  0  0  0  0
 18 21  1  0  0  0  0
 18 22  1  0  0  0  0
 18 23  1  0  0  0  0
 19 24  1  0  0  0  0
 19 25  1  0  0  0  0
 19 26  1  0  0  0  0
 19 27  1  0  0  0  0
M  CHG  7   1   2   4  -1   5  -1   6  -1   7  -1  18   1  19   1
M  END
> <PUBCHEM_COMPOUND_ID_TYPE>
0

> <PUBCHEM_REFERENCE_STANDARDIZATION>
Bypass - this structure was created from CID 15942308

> <PUBCHEM_SUBSTANCE_ID>
500783720

> <PUBCHEM_SUBSTANCE_VERSION>
1

> <PUBCHEM_EXT_DATASOURCE_NAME>
26136

> <PUBCHEM_EXT_DATASOURCE_REGID>
140302

> <PUBCHEM_SUBSTANCE_SYNONYM>
Ferrous ammonium sulfate hexahydrate
99A04ICQ3J
AMMONIUM FERROUS SULFATE HEXAHYDRATE
AMMONIUM FERROUS SULFATE HEXAHYDRATE [MI]
Ammonium ferrous sulphate hexahydrate
Ammonium iron(II) sulfate, hexahydrate (2:1:2:6)
CHEBI:76181
DIAMMONIUM IRON DISULFATE HEXAHYDRATE
DIAMMONIUM IRON(II) SULFATE HEXAHYDRATE
DTXCID201326667
DTXSID70897287
Ferrous ammonium sulfate, hexahydrate
Iron ammonium sulfate hydrate
SULFURIC ACID, AMMONIUM IRON(2+) SALT (2:2:1), HEXAHYDRATE
Sulfuric acid, ammonium iron(2+) salt, hexahydrate
UNII-99A04ICQ3J
ammonium iron(2+) sulfate--water (1/6)
ammonium iron(II) sulfate hexahydrate
7783-85-9
MOHR'S SALT

> <PUBCHEM_GENERIC_REGISTRY_NAME>
7783-85-9

> <PUBCHEM_CID_ASSOCIATIONS>
15942308  1
222  2
962  2
1118  2
23925  2

> <PUBCHEM_COORDINATE_TYPE>
1
5
255

$$$$
