197097
  -OEChem-12092411332D

 52 36  0     0  0  0  0  0  0999 V2000
    8.7458    8.3660    0.0000 Fe  0  1  0  0  0  0  0  0  0  0  0  0
    7.0138    8.3660    0.0000 S   0  0  0  0  0  0  0  0  0  0  0  0
   10.4779    8.3660    0.0000 S   0  0  0  0  0  0  0  0  0  0  0  0
    7.8798    8.8660    0.0000 O   0  5  0  0  0  0  0  0  0  0  0  0
    6.1477    7.8660    0.0000 O   0  5  0  0  0  0  0  0  0  0  0  0
    9.6118    8.8660    0.0000 O   0  5  0  0  0  0  0  0  0  0  0  0
   11.3439    7.8660    0.0000 O   0  5  0  0  0  0  0  0  0  0  0  0
    6.5138    9.2320    0.0000 O   0  0  0  0  0  0  0  0  0  0  0  0
    7.5138    7.5000    0.0000 O   0  0  0  0  0  0  0  0  0  0  0  0
   10.9779    9.2320    0.0000 O   0  0  0  0  0  0  0  0  0  0  0  0
    9.9779    7.5000    0.0000 O   0  0  0  0  0  0  0  0  0  0  0  0
    0.5369    8.4030    0.0000 O   0  0  0  0  0  0  0  0  0  0  0  0
    0.5369    3.4030    0.0000 O   0  0  0  0  0  0  0  0  0  0  0  0
    3.6108    3.4030    0.0000 O   0  0  0  0  0  0  0  0  0  0  0  0
    8.7458    0.0000    0.0000 O   0  0  0  0  0  0  0  0  0  0  0  0
   13.8808    3.4030    0.0000 O   0  0  0  0  0  0  0  0  0  0  0  0
    0.5369    5.9030    0.0000 O   0  0  0  0  0  0  0  0  0  0  0  0
    3.6108    5.9030    0.0000 O   0  0  0  0  0  0  0  0  0  0  0  0
    8.7458    2.5000    0.0000 O   0  0  0  0  0  0  0  0  0  0  0  0
   13.8808    5.9030    0.0000 O   0  0  0  0  0  0  0  0  0  0  0  0
    3.6108    8.4030    0.0000 O   0  0  0  0  0  0  0  0  0  0  0  0
    8.7458    5.0000    0.0000 O   0  0  0  0  0  0  0  0  0  0  0  0
   13.8808    8.4030    0.0000 O   0  0  0  0  0  0  0  0  0  0  0  0
    8.7458   11.7690    0.0000 N   0  3  0  0  0  0  0  0  0  0  0  0
    9.2828   12.0790    0.0000 H   0  0  0  0  0  0  0  0  0  0  0  0
    8.2089   11.4590    0.0000 H   0  0  0  0  0  0  0  0  0  0  0  0
    8.4358   12.3059    0.0000 H   0  0  0  0  0  0  0  0  0  0  0  0
    9.0558   11.2321    0.0000 H   0  0  0  0  0  0  0  0  0  0  0  0
    1.0739    8.7130    0.0000 H   0  0  0  0  0  0  0  0  0  0  0  0
    0.0000    8.7130    0.0000 H   0  0  0  0  0  0  0  0  0  0  0  0
    1.0739    3.7130    0.0000 H   0  0  0  0  0  0  0  0  0  0  0  0
    0.0000    3.7130    0.0000 H   0  0  0  0  0  0  0  0  0  0  0  0
    4.1477    3.7130    0.0000 H   0  0  0  0  0  0  0  0  0  0  0  0
    3.0739    3.7130    0.0000 H   0  0  0  0  0  0  0  0  0  0  0  0
    9.2828    0.3100    0.0000 H   0  0  0  0  0  0  0  0  0  0  0  0
    8.2089    0.3100    0.0000 H   0  0  0  0  0  0  0  0  0  0  0  0
   14.4178    3.7130    0.0000 H   0  0  0  0  0  0  0  0  0  0  0  0
   13.3439    3.7130    0.0000 H   0  0  0  0  0  0  0  0  0  0  0  0
    1.0739    6.2130    0.0000 H   0  0  0  0  0  0  0  0  0  0  0  0
    0.0000    6.2130    0.0000 H   0  0  0  0  0  0  0  0  0  0  0  0
    4.1477    6.2130    0.0000 H   0  0  0  0  0  0  0  0  0  0  0  0
    3.0739    6.2130    0.0000 H   0  0  0  0  0  0  0  0  0  0  0  0
    9.2828    2.8100    0.0000 H   0  0  0  0  0  0  0  0  0  0  0  0
    8.2089    2.8100    0.0000 H   0  0  0  0  0  0  0  0  0  0  0  0
   14.4178    6.2130    0.0000 H   0  0  0  0  0  0  0  0  0  0  0  0
   13.3439    6.2130    0.0000 H   0  0  0  0  0  0  0  0  0  0  0  0
    4.1477    8.7130    0.0000 H   0  0  0  0  0  0  0  0  0  0  0  0
    3.0739    8.7130    0.0000 H   0  0  0  0  0  0  0  0  0  0  0  0
    9.2828    5.3100    0.0000 H   0  0  0  0  0  0  0  0  0  0  0  0
    8.2089    5.3100    0.0000 H   0  0  0  0  0  0  0  0  0  0  0  0
   14.4178    8.7130    0.0000 H   0  0  0  0  0  0  0  0  0  0  0  0
   13.3439    8.7130    0.0000 H   0  0  0  0  0  0  0  0  0  0  0  0
  2  4  1  0  0  0  0
  2  5  1  0  0  0  0
  2  8  2  0  0  0  0
  2  9  2  0  0  0  0
  3  6  1  0  0  0  0
  3  7  1  0  0  0  0
  3 10  2  0  0  0  0
  3 11  2  0  0  0  0
 12 29  1  0  0  0  0
 12 30  1  0  0  0  0
 13 31  1  0  0  0  0
 13 32  1  0  0  0  0
 14 33  1  0  0  0  0
 14 34  1  0  0  0  0
 15 35  1  0  0  0  0
 15 36  1  0  0  0  0
 16 37  1  0  0  0  0
 16 38  1  0  0  0  0
 17 39  1  0  0  0  0
 17 40  1  0  0  0  0
 18 41  1  0  0  0  0
 18 42  1  0  0  0  0
 19 43  1  0  0  0  0
 19 44  1  0  0  0  0
 20 45  1  0  0  0  0
 20 46  1  0  0  0  0
 21 47  1  0  0  0  0
 21 48  1  0  0  0  0
 22 49  1  0  0  0  0
 22 50  1  0  0  0  0
 23 51  1  0  0  0  0
 23 52  1  0  0  0  0
 24 25  1  0  0  0  0
 24 26  1  0  0  0  0
 24 27  1  0  0  0  0
 24 28  1  0  0  0  0
M  CHG  6   1   3   4  -1   5  -1   6  -1   7  -1  24   1
M  END
> <PUBCHEM_COMPOUND_CID>
197097

> <PUBCHEM_COMPOUND_CANONICALIZED>
1

> <PUBCHEM_CACTVS_COMPLEXITY>
62.2

> <PUBCHEM_CACTVS_HBOND_ACCEPTOR>
20

> <PUBCHEM_CACTVS_HBOND_DONOR>
13

> <PUBCHEM_CACTVS_ROTATABLE_BOND>
0

> <PUBCHEM_CACTVS_SUBSKEYS>
AAADceACPgBgAAAgAAAAAAAAAAAAAAAAAAAAAAAAAAAAAAAAAAAAAAAQCAAAAAAAAAAAAAAAAAAAAAAAADAAAAAAAAAAAAAAAAAAAAAAAAAAAAAAAAAAAAAAAAAAAAAAAAAAAAAAAAAAAAAAAAAAAAAAAA==

> <PUBCHEM_IUPAC_OPENEYE_NAME>
ammonium;ferric;disulfate;dodecahydrate

> <PUBCHEM_IUPAC_CAS_NAME>
ammonium;iron(3+);disulfate;dodecahydrate

> <PUBCHEM_IUPAC_NAME_MARKUP>
azanium;iron(3+);disulfate;dodecahydrate

> <PUBCHEM_IUPAC_NAME>
azanium;iron(3+);disulfate;dodecahydrate

> <PUBCHEM_IUPAC_SYSTEMATIC_NAME>
azanium;iron(3+);disulfate;dodecahydrate

> <PUBCHEM_IUPAC_TRADITIONAL_NAME>
ammonium;ferric;disulfate;dodecahydrate

> <PUBCHEM_IUPAC_INCHI>
InChI=1S/Fe.H3N.2H2O4S.12H2O/c;;2*1-5(2,3)4;;;;;;;;;;;;/h;1H3;2*(H2,1,2,3,4);12*1H2/q+3;;;;;;;;;;;;;;;/p-3

> <PUBCHEM_IUPAC_INCHIKEY>
LCPUDZUWZDSKMX-UHFFFAOYSA-K

> <PUBCHEM_EXACT_MASS>
481.999545

> <PUBCHEM_MOLECULAR_FORMULA>
FeH28NO20S2

> <PUBCHEM_MOLECULAR_WEIGHT>
482.2

> <PUBCHEM_OPENEYE_CAN_SMILES>
[NH4+].O.O.O.O.O.O.O.O.O.O.O.O.[O-]S(=O)(=O)[O-].[O-]S(=O)(=O)[O-].[Fe+3]

> <PUBCHEM_OPENEYE_ISO_SMILES>
[NH4+].O.O.O.O.O.O.O.O.O.O.O.O.[O-]S(=O)(=O)[O-].[O-]S(=O)(=O)[O-].[Fe+3]

> <PUBCHEM_CACTVS_TPSA>
190

> <PUBCHEM_MONOISOTOPIC_WEIGHT>
481.999545

> <PUBCHEM_TOTAL_CHARGE>
0

> <PUBCHEM_HEAVY_ATOM_COUNT>
24

> <PUBCHEM_ATOM_DEF_STEREO_COUNT>
0

> <PUBCHEM_ATOM_UDEF_STEREO_COUNT>
0

> <PUBCHEM_BOND_DEF_STEREO_COUNT>
0

> <PUBCHEM_BOND_UDEF_STEREO_COUNT>
0

> <PUBCHEM_ISOTOPIC_ATOM_COUNT>
0

> <PUBCHEM_COMPONENT_COUNT>
16

> <PUBCHEM_CACTVS_TAUTO_COUNT>
-1

> <PUBCHEM_COORDINATE_TYPE>
1
5
255

$$$$
