71586926
  -OEChem-11021702202D

 27 16  0     0  0  0  0  0  0999 V2000
    1.7320    0.5000    0.0000 I   0  5  0  0  0  0  0  0  0  0  0  0
    0.0000    0.5000    0.0000 I   0  5  0  0  0  0  0  0  0  0  0  0
    0.8660    0.0000    0.0000 Mg  0  2  0  0  0  0  0  0  0  0  0  0
    0.8660    2.5000    0.0000 O   0  0  0  0  0  0  0  0  0  0  0  0
    0.8660    5.0000    0.0000 O   0  0  0  0  0  0  0  0  0  0  0  0
    4.2690    0.0000    0.0000 O   0  0  0  0  0  0  0  0  0  0  0  0
    4.2690    2.5000    0.0000 O   0  0  0  0  0  0  0  0  0  0  0  0
    4.2690    5.0000    0.0000 O   0  0  0  0  0  0  0  0  0  0  0  0
    4.2690    7.5000    0.0000 O   0  0  0  0  0  0  0  0  0  0  0  0
    0.8660    7.5000    0.0000 O   0  0  0  0  0  0  0  0  0  0  0  0
    7.3429    3.7500    0.0000 O   0  0  0  0  0  0  0  0  0  0  0  0
    1.4030    2.8100    0.0000 H   0  0  0  0  0  0  0  0  0  0  0  0
    0.3291    2.8100    0.0000 H   0  0  0  0  0  0  0  0  0  0  0  0
    1.4030    5.3100    0.0000 H   0  0  0  0  0  0  0  0  0  0  0  0
    0.3291    5.3100    0.0000 H   0  0  0  0  0  0  0  0  0  0  0  0
    4.8059    0.3100    0.0000 H   0  0  0  0  0  0  0  0  0  0  0  0
    3.7320    0.3100    0.0000 H   0  0  0  0  0  0  0  0  0  0  0  0
    4.8059    2.8100    0.0000 H   0  0  0  0  0  0  0  0  0  0  0  0
    3.7320    2.8100    0.0000 H   0  0  0  0  0  0  0  0  0  0  0  0
    4.8059    5.3100    0.0000 H   0  0  0  0  0  0  0  0  0  0  0  0
    3.7320    5.3100    0.0000 H   0  0  0  0  0  0  0  0  0  0  0  0
    4.8059    7.8100    0.0000 H   0  0  0  0  0  0  0  0  0  0  0  0
    3.7320    7.8100    0.0000 H   0  0  0  0  0  0  0  0  0  0  0  0
    1.4030    7.8100    0.0000 H   0  0  0  0  0  0  0  0  0  0  0  0
    0.3291    7.8100    0.0000 H   0  0  0  0  0  0  0  0  0  0  0  0
    7.8798    4.0600    0.0000 H   0  0  0  0  0  0  0  0  0  0  0  0
    6.8059    4.0600    0.0000 H   0  0  0  0  0  0  0  0  0  0  0  0
  4 12  1  0  0  0  0
  4 13  1  0  0  0  0
  5 14  1  0  0  0  0
  5 15  1  0  0  0  0
  6 16  1  0  0  0  0
  6 17  1  0  0  0  0
  7 18  1  0  0  0  0
  7 19  1  0  0  0  0
  8 20  1  0  0  0  0
  8 21  1  0  0  0  0
  9 22  1  0  0  0  0
  9 23  1  0  0  0  0
 10 24  1  0  0  0  0
 10 25  1  0  0  0  0
 11 26  1  0  0  0  0
 11 27  1  0  0  0  0
M  CHG  3   1  -1   2  -1   3   2
M  END
> <PUBCHEM_COMPOUND_CID>
71586926

> <PUBCHEM_COMPOUND_CANONICALIZED>
1

> <PUBCHEM_CACTVS_COMPLEXITY>
0

> <PUBCHEM_CACTVS_HBOND_ACCEPTOR>
10

> <PUBCHEM_CACTVS_HBOND_DONOR>
8

> <PUBCHEM_CACTVS_ROTATABLE_BOND>
0

> <PUBCHEM_CACTVS_SUBSKEYS>
AAADceAAPAAAAyAAAAAAAAAAAAAAAAAAAAAAAAAAAAAAAAAAAAAAAAAACAAAAAAAAAAAAAAAAAAAAAAAAAAAAAAAAAAAAAAAAAAAAAAAAAAAAAAAAAAAAAAAAAAAAAAAAAAAAAAAAAAAAAAAAAAAAAAAAA==

> <PUBCHEM_IUPAC_OPENEYE_NAME>
magnesium;diiodide;octahydrate

> <PUBCHEM_IUPAC_CAS_NAME>
magnesium;diiodide;octahydrate

> <PUBCHEM_IUPAC_NAME>
magnesium;diiodide;octahydrate

> <PUBCHEM_IUPAC_SYSTEMATIC_NAME>
magnesium;diiodide;octahydrate

> <PUBCHEM_IUPAC_TRADITIONAL_NAME>
magnesium;diiodide;octahydrate

> <PUBCHEM_IUPAC_INCHI>
InChI=1S/2HI.Mg.8H2O/h2*1H;;8*1H2/q;;+2;;;;;;;;/p-2

> <PUBCHEM_IUPAC_INCHIKEY>
CKYYFGUIKHUOKJ-UHFFFAOYSA-L

> <PUBCHEM_EXACT_MASS>
421.879

> <PUBCHEM_MOLECULAR_FORMULA>
H16I2MgO8

> <PUBCHEM_MOLECULAR_WEIGHT>
422.234

> <PUBCHEM_OPENEYE_CAN_SMILES>
O.O.O.O.O.O.O.O.[Mg+2].[I-].[I-]

> <PUBCHEM_OPENEYE_ISO_SMILES>
O.O.O.O.O.O.O.O.[Mg+2].[I-].[I-]

> <PUBCHEM_CACTVS_TPSA>
8

> <PUBCHEM_MONOISOTOPIC_WEIGHT>
421.879

> <PUBCHEM_TOTAL_CHARGE>
0

> <PUBCHEM_HEAVY_ATOM_COUNT>
11

> <PUBCHEM_ATOM_DEF_STEREO_COUNT>
0

> <PUBCHEM_ATOM_UDEF_STEREO_COUNT>
0

> <PUBCHEM_BOND_DEF_STEREO_COUNT>
0

> <PUBCHEM_BOND_UDEF_STEREO_COUNT>
0

> <PUBCHEM_ISOTOPIC_ATOM_COUNT>
0

> <PUBCHEM_COMPONENT_COUNT>
11

> <PUBCHEM_CACTVS_TAUTO_COUNT>
1

> <PUBCHEM_COORDINATE_TYPE>
1
5
255

$$$$
