61439
  -OEChem-10081717472D

  5  4  0     0  0  0  0  0  0999 V2000
    2.7071    0.0000    0.0000 Pd  0  6  0  0  0  0  0  0  0  0  0  0
    3.4142    0.7071    0.0000 Cl  0  0  0  0  0  0  0  0  0  0  0  0
    2.0000   -0.7071    0.0000 Cl  0  0  0  0  0  0  0  0  0  0  0  0
    2.0000    0.7071    0.0000 Cl  0  0  0  0  0  0  0  0  0  0  0  0
    3.4142   -0.7071    0.0000 Cl  0  0  0  0  0  0  0  0  0  0  0  0
  1  2  1  1  0  0  0
  1  3  1  1  0  0  0
  1  4  1  6  0  0  0
  1  5  1  6  0  0  0
M  CHG  1   1  -2
M  END
> <PUBCHEM_COMPOUND_CID>
61439

> <PUBCHEM_COMPOUND_CANONICALIZED>
1

> <PUBCHEM_CACTVS_COMPLEXITY>
19.1

> <PUBCHEM_CACTVS_HBOND_ACCEPTOR>
1

> <PUBCHEM_CACTVS_HBOND_DONOR>
0

> <PUBCHEM_CACTVS_ROTATABLE_BOND>
0

> <PUBCHEM_CACTVS_SUBSKEYS>
AAADcQAAAAAHAAAAAAgAAAAAAAAAAAAAAAAAAAAAAAAAAAAAAAAAAAAAAAAAAAAAAAAAAAAAAAAAAAAAAAAAAAAAAAAAAAAAAAAAAAAAAAAAAAAAAAAAAAAAAAAAAAAAAAAAAAAAAAAAAAAAAAAAAAAAAA==

> <PUBCHEM_IUPAC_OPENEYE_NAME>
tetrachloropalladium(2-)

> <PUBCHEM_IUPAC_CAS_NAME>
tetrachloropalladium(2-)

> <PUBCHEM_IUPAC_NAME>
tetrachloropalladium(2-)

> <PUBCHEM_IUPAC_SYSTEMATIC_NAME>
tetrakis(chloranyl)palladium(2-)

> <PUBCHEM_IUPAC_TRADITIONAL_NAME>
tetrachloropalladium(2-)

> <PUBCHEM_IUPAC_INCHI>
InChI=1S/4ClH.Pd/h4*1H;/q;;;;+2/p-4

> <PUBCHEM_IUPAC_INCHIKEY>
RPYSFYBAYJBKCR-UHFFFAOYSA-J

> <PUBCHEM_EXACT_MASS>
247.776

> <PUBCHEM_MOLECULAR_FORMULA>
Cl4Pd-2

> <PUBCHEM_MOLECULAR_WEIGHT>
248.22

> <PUBCHEM_OPENEYE_CAN_SMILES>
Cl[Pd-2](Cl)(Cl)Cl

> <PUBCHEM_OPENEYE_ISO_SMILES>
Cl[Pd-2](Cl)(Cl)Cl

> <PUBCHEM_CACTVS_TPSA>
0

> <PUBCHEM_MONOISOTOPIC_WEIGHT>
245.779

> <PUBCHEM_TOTAL_CHARGE>
-2

> <PUBCHEM_HEAVY_ATOM_COUNT>
5

> <PUBCHEM_ATOM_DEF_STEREO_COUNT>
0

> <PUBCHEM_ATOM_UDEF_STEREO_COUNT>
0

> <PUBCHEM_BOND_DEF_STEREO_COUNT>
0

> <PUBCHEM_BOND_UDEF_STEREO_COUNT>
0

> <PUBCHEM_ISOTOPIC_ATOM_COUNT>
0

> <PUBCHEM_COMPONENT_COUNT>
1

> <PUBCHEM_CACTVS_TAUTO_COUNT>
1

> <PUBCHEM_COORDINATE_TYPE>
1
5
255

> <PUBCHEM_BONDANNOTATIONS>
1  2  5
1  3  5
1  4  6
1  5  6

$$$$
