114790
  -OEChem-10081722482D

  9  4  0     0  0  0  0  0  0999 V2000
    3.4030    0.0000    0.0000 Al  0  1  0  0  0  0  0  0  0  0  0  0
    4.2690    0.5000    0.0000 O   0  5  0  0  0  0  0  0  0  0  0  0
    2.5369   -0.5000    0.0000 O   0  5  0  0  0  0  0  0  0  0  0  0
    2.9030    0.8660    0.0000 O   0  5  0  0  0  0  0  0  0  0  0  0
    3.9030   -0.8660    0.0000 O   0  5  0  0  0  0  0  0  0  0  0  0
    4.8059    0.1900    0.0000 H   0  0  0  0  0  0  0  0  0  0  0  0
    2.0000   -0.1900    0.0000 H   0  0  0  0  0  0  0  0  0  0  0  0
    3.2130    1.4030    0.0000 H   0  0  0  0  0  0  0  0  0  0  0  0
    3.5930   -1.4030    0.0000 H   0  0  0  0  0  0  0  0  0  0  0  0
  2  6  1  0  0  0  0
  3  7  1  0  0  0  0
  4  8  1  0  0  0  0
  5  9  1  0  0  0  0
M  CHG  5   1   3   2  -1   3  -1   4  -1   5  -1
M  END
> <PUBCHEM_COMPOUND_CID>
114790

> <PUBCHEM_COMPOUND_CANONICALIZED>
1

> <PUBCHEM_CACTVS_COMPLEXITY>
3.6

> <PUBCHEM_CACTVS_HBOND_ACCEPTOR>
4

> <PUBCHEM_CACTVS_HBOND_DONOR>
4

> <PUBCHEM_CACTVS_ROTATABLE_BOND>
0

> <PUBCHEM_CACTVS_SUBSKEYS>
AAADcYAAOAAAABAAAAAAAAAAAAAAAAAAAAAAAAAAAAAAAAAAAAAAAAAACAAAAAAAAAAAAAAAAAAAAAAAAAAAAAAAAAAAAAAAAAAAAAAAAAAAAAAAAAAAAAAAAAAAAAAAAAAAAAAAAAAAAAAAAAAAAAAAAA==

> <PUBCHEM_IUPAC_OPENEYE_NAME>
aluminum;tetrahydroxide

> <PUBCHEM_IUPAC_CAS_NAME>
aluminum;tetrahydroxide

> <PUBCHEM_IUPAC_NAME>
aluminum;tetrahydroxide

> <PUBCHEM_IUPAC_SYSTEMATIC_NAME>
aluminum;tetrahydroxide

> <PUBCHEM_IUPAC_TRADITIONAL_NAME>
aluminum;tetrahydroxide

> <PUBCHEM_IUPAC_INCHI>
InChI=1S/Al.4H2O/h;4*1H2/q+3;;;;/p-4

> <PUBCHEM_IUPAC_INCHIKEY>
SMYKVLBUSSNXMV-UHFFFAOYSA-J

> <PUBCHEM_EXACT_MASS>
94.992

> <PUBCHEM_MOLECULAR_FORMULA>
AlH4O4-

> <PUBCHEM_MOLECULAR_WEIGHT>
95.01

> <PUBCHEM_OPENEYE_CAN_SMILES>
[OH-].[OH-].[OH-].[OH-].[Al+3]

> <PUBCHEM_OPENEYE_ISO_SMILES>
[OH-].[OH-].[OH-].[OH-].[Al+3]

> <PUBCHEM_CACTVS_TPSA>
4

> <PUBCHEM_MONOISOTOPIC_WEIGHT>
94.992

> <PUBCHEM_TOTAL_CHARGE>
-1

> <PUBCHEM_HEAVY_ATOM_COUNT>
5

> <PUBCHEM_ATOM_DEF_STEREO_COUNT>
0

> <PUBCHEM_ATOM_UDEF_STEREO_COUNT>
0

> <PUBCHEM_BOND_DEF_STEREO_COUNT>
0

> <PUBCHEM_BOND_UDEF_STEREO_COUNT>
0

> <PUBCHEM_ISOTOPIC_ATOM_COUNT>
0

> <PUBCHEM_COMPONENT_COUNT>
5

> <PUBCHEM_CACTVS_TAUTO_COUNT>
1

> <PUBCHEM_NONSTANDARDBOND>
1  2  6
1  3  6
1  4  6
1  5  6

> <PUBCHEM_COORDINATE_TYPE>
1
5
255

$$$$
