3893752
  -OEChem-10081717542D

  5  4  0     0  0  0  0  0  0999 V2000
    2.7071    0.0000    0.0000 Pt  0  6  0  0  0  0  0  0  0  0  0  0
    3.4142    0.7071    0.0000 Br  0  0  0  0  0  0  0  0  0  0  0  0
    2.0000   -0.7071    0.0000 Br  0  0  0  0  0  0  0  0  0  0  0  0
    3.4142   -0.7071    0.0000 Br  0  0  0  0  0  0  0  0  0  0  0  0
    2.0000    0.7071    0.0000 Br  0  0  0  0  0  0  0  0  0  0  0  0
  1  2  1  6  0  0  0
  1  3  1  1  0  0  0
  1  4  1  1  0  0  0
  1  5  1  6  0  0  0
M  CHG  1   1  -2
M  END
> <PUBCHEM_COMPOUND_CID>
3893752

> <PUBCHEM_COMPOUND_CANONICALIZED>
1

> <PUBCHEM_CACTVS_COMPLEXITY>
19.1

> <PUBCHEM_CACTVS_HBOND_ACCEPTOR>
1

> <PUBCHEM_CACTVS_HBOND_DONOR>
0

> <PUBCHEM_CACTVS_ROTATABLE_BOND>
0

> <PUBCHEM_CACTVS_SUBSKEYS>
AAADcQAAAAAAHAAAAAAABAAAAAAAAAAAAAAAAAAAAAAAAAAAAAAAAAAAAAAAAAAAAAAAAAAAAAAAAAAAAAAAAAAAAAAAAAAAAAAAAAAAAAAAAAAAAAAAAAAAAAAAAAAAAAAAAAAAAAAAAAAAAAAAAAAAAA==

> <PUBCHEM_IUPAC_OPENEYE_NAME>
tetrabromoplatinum(2-)

> <PUBCHEM_IUPAC_CAS_NAME>
tetrabromoplatinum(2-)

> <PUBCHEM_IUPAC_NAME>
tetrabromoplatinum(2-)

> <PUBCHEM_IUPAC_SYSTEMATIC_NAME>
tetrakis(bromanyl)platinum(2-)

> <PUBCHEM_IUPAC_TRADITIONAL_NAME>
tetrabromoplatinum(2-)

> <PUBCHEM_IUPAC_INCHI>
InChI=1S/4BrH.Pt/h4*1H;/q;;;;+2/p-4

> <PUBCHEM_IUPAC_INCHIKEY>
NDLRGHDUUNRQLL-UHFFFAOYSA-J

> <PUBCHEM_EXACT_MASS>
514.634

> <PUBCHEM_MOLECULAR_FORMULA>
Br4Pt-2

> <PUBCHEM_MOLECULAR_WEIGHT>
514.7

> <PUBCHEM_OPENEYE_CAN_SMILES>
Br[Pt-2](Br)(Br)Br

> <PUBCHEM_OPENEYE_ISO_SMILES>
Br[Pt-2](Br)(Br)Br

> <PUBCHEM_CACTVS_TPSA>
0

> <PUBCHEM_MONOISOTOPIC_WEIGHT>
510.638

> <PUBCHEM_TOTAL_CHARGE>
-2

> <PUBCHEM_HEAVY_ATOM_COUNT>
5

> <PUBCHEM_ATOM_DEF_STEREO_COUNT>
0

> <PUBCHEM_ATOM_UDEF_STEREO_COUNT>
0

> <PUBCHEM_BOND_DEF_STEREO_COUNT>
0

> <PUBCHEM_BOND_UDEF_STEREO_COUNT>
0

> <PUBCHEM_ISOTOPIC_ATOM_COUNT>
0

> <PUBCHEM_COMPONENT_COUNT>
1

> <PUBCHEM_CACTVS_TAUTO_COUNT>
1

> <PUBCHEM_COORDINATE_TYPE>
1
5
255

> <PUBCHEM_BONDANNOTATIONS>
1  2  6
1  3  5
1  4  5
1  5  6

$$$$
