26255
  -OEChem-10081718292D

  5  4  0     0  0  0  0  0  0999 V2000
    3.7320    0.5000    0.0000 F   0  0  0  0  0  0  0  0  0  0  0  0
    2.0000   -0.5000    0.0000 F   0  0  0  0  0  0  0  0  0  0  0  0
    2.3660    0.8660    0.0000 F   0  0  0  0  0  0  0  0  0  0  0  0
    3.3660   -0.8660    0.0000 F   0  0  0  0  0  0  0  0  0  0  0  0
    2.8660    0.0000    0.0000 B   0  5  0  0  0  0  0  0  0  0  0  0
  1  5  1  0  0  0  0
  2  5  1  0  0  0  0
  3  5  1  0  0  0  0
  4  5  1  0  0  0  0
M  CHG  1   5  -1
M  END
> <PUBCHEM_COMPOUND_CID>
26255

> <PUBCHEM_COMPOUND_CANONICALIZED>
1

> <PUBCHEM_CACTVS_COMPLEXITY>
19.1

> <PUBCHEM_CACTVS_HBOND_ACCEPTOR>
5

> <PUBCHEM_CACTVS_HBOND_DONOR>
0

> <PUBCHEM_CACTVS_ROTATABLE_BOND>
0

> <PUBCHEM_CACTVS_SUBSKEYS>
AAADcQIAAcAAAAAAAAAAAAAAAAAAAAAAAAAAAAAAAAAAAAAAAAAEAAAAAAAAAAAAAAAAAAAAAAAAAAAAAAAAAAAAAAAAAAAAAAAAAAAAAAAAAAAAAAAAAAAAAAAAAAAAAAAAAAAAAAAAAAAAAAAAAAAAAA==

> <PUBCHEM_IUPAC_OPENEYE_NAME>
tetrafluoroborate

> <PUBCHEM_IUPAC_CAS_NAME>
tetrafluoroborate

> <PUBCHEM_IUPAC_NAME>
tetrafluoroborate

> <PUBCHEM_IUPAC_SYSTEMATIC_NAME>
tetrafluoroborate

> <PUBCHEM_IUPAC_TRADITIONAL_NAME>
tetrafluoroborate

> <PUBCHEM_IUPAC_INCHI>
InChI=1S/BF4/c2-1(3,4)5/q-1

> <PUBCHEM_IUPAC_INCHIKEY>
ODGCEQLVLXJUCC-UHFFFAOYSA-N

> <PUBCHEM_EXACT_MASS>
87.003

> <PUBCHEM_MOLECULAR_FORMULA>
BF4-

> <PUBCHEM_MOLECULAR_WEIGHT>
86.804

> <PUBCHEM_OPENEYE_CAN_SMILES>
[B-](F)(F)(F)F

> <PUBCHEM_OPENEYE_ISO_SMILES>
[B-](F)(F)(F)F

> <PUBCHEM_CACTVS_TPSA>
0

> <PUBCHEM_MONOISOTOPIC_WEIGHT>
87.003

> <PUBCHEM_TOTAL_CHARGE>
-1

> <PUBCHEM_HEAVY_ATOM_COUNT>
5

> <PUBCHEM_ATOM_DEF_STEREO_COUNT>
0

> <PUBCHEM_ATOM_UDEF_STEREO_COUNT>
0

> <PUBCHEM_BOND_DEF_STEREO_COUNT>
0

> <PUBCHEM_BOND_UDEF_STEREO_COUNT>
0

> <PUBCHEM_ISOTOPIC_ATOM_COUNT>
0

> <PUBCHEM_COMPONENT_COUNT>
1

> <PUBCHEM_CACTVS_TAUTO_COUNT>
1

> <PUBCHEM_COORDINATE_TYPE>
1
5
255

$$$$
