84979
  -OEChem-10081718492D

  4  3  0     0  0  0  0  0  0999 V2000
    2.8660    0.2500    0.0000 Br  0  0  0  0  0  0  0  0  0  0  0  0
    3.7320    0.7500    0.0000 O   0  5  0  0  0  0  0  0  0  0  0  0
    2.0000    0.7500    0.0000 O   0  0  0  0  0  0  0  0  0  0  0  0
    2.8660   -0.7500    0.0000 O   0  0  0  0  0  0  0  0  0  0  0  0
  1  2  1  0  0  0  0
  1  3  2  0  0  0  0
  1  4  2  0  0  0  0
M  CHG  1   2  -1
M  END
> <PUBCHEM_COMPOUND_CID>
84979

> <PUBCHEM_COMPOUND_CANONICALIZED>
1

> <PUBCHEM_CACTVS_COMPLEXITY>
36.5

> <PUBCHEM_CACTVS_HBOND_ACCEPTOR>
3

> <PUBCHEM_CACTVS_HBOND_DONOR>
0

> <PUBCHEM_CACTVS_ROTATABLE_BOND>
0

> <PUBCHEM_CACTVS_SUBSKEYS>
AAADcQAAMAAAEAAAAAAAAAAAAAAAAAAAAAAAAAAAAAAAAAAAAAAAAAAAAAAAAAAAAAAAAAAAAAAAAAAAAAAAAAAAAAAAAAAAAAAAAAAAAAAAAAAAAAAAAAAAAAAAAAAAAAAAAAAAAAAAAAAAAAAAAAAAAA==

> <PUBCHEM_IUPAC_OPENEYE_NAME>
bromate

> <PUBCHEM_IUPAC_CAS_NAME>
bromate

> <PUBCHEM_IUPAC_NAME>
bromate

> <PUBCHEM_IUPAC_SYSTEMATIC_NAME>
bromate

> <PUBCHEM_IUPAC_TRADITIONAL_NAME>
bromate

> <PUBCHEM_IUPAC_INCHI>
InChI=1S/BrHO3/c2-1(3)4/h(H,2,3,4)/p-1

> <PUBCHEM_IUPAC_INCHIKEY>
SXDBWCPKPHAZSM-UHFFFAOYSA-M

> <PUBCHEM_XLOGP3_AA>
-0.7

> <PUBCHEM_EXACT_MASS>
126.903

> <PUBCHEM_MOLECULAR_FORMULA>
BrO3-

> <PUBCHEM_MOLECULAR_WEIGHT>
127.901

> <PUBCHEM_OPENEYE_CAN_SMILES>
[O-]Br(=O)=O

> <PUBCHEM_OPENEYE_ISO_SMILES>
[O-]Br(=O)=O

> <PUBCHEM_CACTVS_TPSA>
57.2

> <PUBCHEM_MONOISOTOPIC_WEIGHT>
126.903

> <PUBCHEM_TOTAL_CHARGE>
-1

> <PUBCHEM_HEAVY_ATOM_COUNT>
4

> <PUBCHEM_ATOM_DEF_STEREO_COUNT>
0

> <PUBCHEM_ATOM_UDEF_STEREO_COUNT>
0

> <PUBCHEM_BOND_DEF_STEREO_COUNT>
0

> <PUBCHEM_BOND_UDEF_STEREO_COUNT>
0

> <PUBCHEM_ISOTOPIC_ATOM_COUNT>
0

> <PUBCHEM_COMPONENT_COUNT>
1

> <PUBCHEM_CACTVS_TAUTO_COUNT>
1

> <PUBCHEM_COORDINATE_TYPE>
1
5
255

$$$$
