MolHeader
  1019              2D

  3  2  0  0  0  0  0  0  0  0999 V2000
   -0.6788    0.0000    0.1645 F   0  0  0  0  0  0  0  0  0  0  0  0
   -0.0000    0.0000   -0.3289 H   0  5  0  0  0  0  0  0  0  0  0  0
    0.6788   -0.0000    0.1645 F   0  0  0  0  0  0  0  0  0  0  0  0
  1  2  1  0  0  0  0
  2  3  1  0  0  0  0
M  CHG  1   2  -1
M  END

> <energy>
2.3449387643013949e-030

> <StdInChI>
InChI=1S/F2H/c1-3-2/q-1

> <StdInChIKey>
LJRMFMQHZAVYNS-UHFFFAOYSA-N

> <AuxInfo>
1/0/N:1,3,2/E:(1,2)/CRV:3-1/rA:3nFH-F/rB:s1;s2;/rC:-.6788,0,.1645;0,0,-.3289;.6788,0,.1645;

> <IndigoException>
com.ggasoftware.indigo.IndigoException: element: bad valence on H having 2 drawn bonds, charge -1, and 0 radical electrons
   at com.ggasoftware.indigo.Indigo.checkResult(Int32 result)
   at com.ggasoftware.indigo.IndigoObject.grossFormula()
   at ChemSpider.Molecules.Molecule2.AddMolecularProperties(Boolean ignoreIndigoStereoErrors)
   at ChemSpider.Molecules.Molecule2.InitializeChemicalProperties(String molfile)

> <CSID>
35308425

$$$$
