3371854
  -OEChem-10081718122D

  9  4  0     0  0  0  0  0  0999 V2000
    3.7320    0.0000    0.0000 Ni  0  2  0  0  0  0  0  0  0  0  0  0
    5.4641    1.0000    0.0000 N   0  0  0  0  0  0  0  0  0  0  0  0
    2.0000   -1.0000    0.0000 N   0  0  0  0  0  0  0  0  0  0  0  0
    2.7320    1.7320    0.0000 N   0  0  0  0  0  0  0  0  0  0  0  0
    4.7320   -1.7320    0.0000 N   0  0  0  0  0  0  0  0  0  0  0  0
    4.5981    0.5000    0.0000 C   0  5  0  0  0  0  0  0  0  0  0  0
    2.8660   -0.5000    0.0000 C   0  5  0  0  0  0  0  0  0  0  0  0
    3.2320    0.8660    0.0000 C   0  5  0  0  0  0  0  0  0  0  0  0
    4.2320   -0.8660    0.0000 C   0  5  0  0  0  0  0  0  0  0  0  0
  2  6  3  0  0  0  0
  3  7  3  0  0  0  0
  4  8  3  0  0  0  0
  5  9  3  0  0  0  0
M  CHG  5   1   2   6  -1   7  -1   8  -1   9  -1
M  END
> <PUBCHEM_COMPOUND_CID>
3371854

> <PUBCHEM_COMPOUND_CANONICALIZED>
1

> <PUBCHEM_CACTVS_COMPLEXITY>
76.5

> <PUBCHEM_CACTVS_HBOND_ACCEPTOR>
8

> <PUBCHEM_CACTVS_HBOND_DONOR>
0

> <PUBCHEM_CACTVS_ROTATABLE_BOND>
0

> <PUBCHEM_CACTVS_SUBSKEYS>
AAADcQBjgAAAAAAIAAAAAAAAAAAAAAAAAAAAAAAAAAAAAAAAAAAABAAAAAAAAAAAAAAAAAAAAAAQAAAAAAAAAAAAAAAAAAAAAAAAAAAAAAAAAAAAAAAAAAAAAAAAAAAAAAAAAAAAAAAAAAAAAAAAAAAAAA==

> <PUBCHEM_IUPAC_OPENEYE_NAME>
nickelous;tetracyanide

> <PUBCHEM_IUPAC_CAS_NAME>
nickel(2+);tetracyanide

> <PUBCHEM_IUPAC_NAME>
nickel(2+);tetracyanide

> <PUBCHEM_IUPAC_SYSTEMATIC_NAME>
nickel(2+);tetracyanide

> <PUBCHEM_IUPAC_TRADITIONAL_NAME>
nickelous;tetracyanide

> <PUBCHEM_IUPAC_INCHI>
InChI=1S/4CN.Ni/c4*1-2;/q4*-1;+2

> <PUBCHEM_IUPAC_INCHIKEY>
BYMZQQLCZDLNKW-UHFFFAOYSA-N

> <PUBCHEM_EXACT_MASS>
161.948

> <PUBCHEM_MOLECULAR_FORMULA>
C4N4Ni-2

> <PUBCHEM_MOLECULAR_WEIGHT>
162.765

> <PUBCHEM_OPENEYE_CAN_SMILES>
[C-]#N.[C-]#N.[C-]#N.[C-]#N.[Ni+2]

> <PUBCHEM_OPENEYE_ISO_SMILES>
[C-]#N.[C-]#N.[C-]#N.[C-]#N.[Ni+2]

> <PUBCHEM_CACTVS_TPSA>
95.2

> <PUBCHEM_MONOISOTOPIC_WEIGHT>
161.948

> <PUBCHEM_TOTAL_CHARGE>
-2

> <PUBCHEM_HEAVY_ATOM_COUNT>
9

> <PUBCHEM_ATOM_DEF_STEREO_COUNT>
0

> <PUBCHEM_ATOM_UDEF_STEREO_COUNT>
0

> <PUBCHEM_BOND_DEF_STEREO_COUNT>
0

> <PUBCHEM_BOND_UDEF_STEREO_COUNT>
0

> <PUBCHEM_ISOTOPIC_ATOM_COUNT>
0

> <PUBCHEM_COMPONENT_COUNT>
5

> <PUBCHEM_CACTVS_TAUTO_COUNT>
1

> <PUBCHEM_NONSTANDARDBOND>
1  6  6
1  7  6
1  8  6
1  9  6

> <PUBCHEM_COORDINATE_TYPE>
1
5
255

$$$$
