92028719
  -OEChem-10091718432D

  3  1  0     0  0  0  0  0  0999 V2000
    2.0000   -0.2500    0.0000 Th  0  0  0  0  0  0  0  0  0  0  0  0
    2.8660    0.2500    0.0000 O   0  5  0  0  0  0  0  0  0  0  0  0
    3.4030   -0.0600    0.0000 H   0  0  0  0  0  0  0  0  0  0  0  0
  2  3  1  0  0  0  0
M  CHG  2   1   4   2  -1
M  END
> <PUBCHEM_COMPOUND_CID>
92028719

> <PUBCHEM_COMPOUND_CANONICALIZED>
1

> <PUBCHEM_CACTVS_COMPLEXITY>
0

> <PUBCHEM_CACTVS_HBOND_ACCEPTOR>
1

> <PUBCHEM_CACTVS_HBOND_DONOR>
1

> <PUBCHEM_CACTVS_ROTATABLE_BOND>
0

> <PUBCHEM_CACTVS_SUBSKEYS>
AAADcQAAIAAAAAAAAAAAAAAAAAAAAAAAAAAAAAAAAAAAAAAAAAAAAAAACAAAAAAAAAAAAAAAAAAAAAAAAAAAAAAAAAAAAAAAAAAAAAAAAAAAAAAAAAAAAAAAAAAAAAAAAAAAAAAAAAAAAAAAAAAAAAAAAA==

> <PUBCHEM_IUPAC_OPENEYE_NAME>
thorium(4+);hydroxide

> <PUBCHEM_IUPAC_CAS_NAME>
thorium(4+);hydroxide

> <PUBCHEM_IUPAC_NAME>
thorium(4+);hydroxide

> <PUBCHEM_IUPAC_SYSTEMATIC_NAME>
thorium(4+);hydroxide

> <PUBCHEM_IUPAC_TRADITIONAL_NAME>
thorium(4+);hydroxide

> <PUBCHEM_IUPAC_INCHI>
InChI=1S/H2O.Th/h1H2;/q;+4/p-1

> <PUBCHEM_IUPAC_INCHIKEY>
GDEXJEZWNNJLGE-UHFFFAOYSA-M

> <PUBCHEM_EXACT_MASS>
249.041

> <PUBCHEM_MOLECULAR_FORMULA>
HOTh+3

> <PUBCHEM_MOLECULAR_WEIGHT>
249.045

> <PUBCHEM_OPENEYE_CAN_SMILES>
[OH-].[Th+4]

> <PUBCHEM_OPENEYE_ISO_SMILES>
[OH-].[Th+4]

> <PUBCHEM_CACTVS_TPSA>
1

> <PUBCHEM_MONOISOTOPIC_WEIGHT>
249.041

> <PUBCHEM_TOTAL_CHARGE>
3

> <PUBCHEM_HEAVY_ATOM_COUNT>
2

> <PUBCHEM_ATOM_DEF_STEREO_COUNT>
0

> <PUBCHEM_ATOM_UDEF_STEREO_COUNT>
0

> <PUBCHEM_BOND_DEF_STEREO_COUNT>
0

> <PUBCHEM_BOND_UDEF_STEREO_COUNT>
0

> <PUBCHEM_ISOTOPIC_ATOM_COUNT>
0

> <PUBCHEM_COMPONENT_COUNT>
2

> <PUBCHEM_CACTVS_TAUTO_COUNT>
1

> <PUBCHEM_COORDINATE_TYPE>
1
5
255

$$$$
