84878
  -OEChem-10081713462D

  2  1  0     0  0  0  0  0  0999 V2000
    2.0000    0.0000    0.0000 O   0  3  0  0  0  0  0  0  0  0  0  0
    3.0000    0.0000    0.0000 N   0  0  0  0  0  0  0  0  0  0  0  0
  1  2  3  0  0  0  0
M  CHG  1   1   1
M  END
> <PUBCHEM_COMPOUND_CID>
84878

> <PUBCHEM_COMPOUND_CANONICALIZED>
1

> <PUBCHEM_CACTVS_COMPLEXITY>
10

> <PUBCHEM_CACTVS_HBOND_ACCEPTOR>
1

> <PUBCHEM_CACTVS_HBOND_DONOR>
0

> <PUBCHEM_CACTVS_ROTATABLE_BOND>
0

> <PUBCHEM_CACTVS_SUBSKEYS>
AAADcQACIAAAAAAAAAAAAAAAAAAAAAAAAAAAAAAAAAAAAAAAAAAAAAAEAAAAAAAAAAAAAAAAAAAAAAAAAAAAAAAAAAAAAAAAAAAAAAAAAAAAAAAAAAAAAAAAAAAAAAAAAAAAAAAAAAAAAAAAAAAAAAAAAA==

> <PUBCHEM_IUPAC_OPENEYE_NAME>
nitridooxonium

> <PUBCHEM_IUPAC_CAS_NAME>
nitrilooxonium

> <PUBCHEM_IUPAC_NAME>
azanylidyneoxidanium

> <PUBCHEM_IUPAC_SYSTEMATIC_NAME>
azanylidyneoxidanium

> <PUBCHEM_IUPAC_TRADITIONAL_NAME>
nitrilooxonium

> <PUBCHEM_IUPAC_INCHI>
InChI=1S/NO/c1-2/q+1

> <PUBCHEM_IUPAC_INCHIKEY>
KEJOCWOXCDWNID-UHFFFAOYSA-N

> <PUBCHEM_EXACT_MASS>
29.998

> <PUBCHEM_MOLECULAR_FORMULA>
NO+

> <PUBCHEM_MOLECULAR_WEIGHT>
30.006

> <PUBCHEM_OPENEYE_CAN_SMILES>
N#[O+]

> <PUBCHEM_OPENEYE_ISO_SMILES>
N#[O+]

> <PUBCHEM_CACTVS_TPSA>
24.8

> <PUBCHEM_MONOISOTOPIC_WEIGHT>
29.998

> <PUBCHEM_TOTAL_CHARGE>
1

> <PUBCHEM_HEAVY_ATOM_COUNT>
2

> <PUBCHEM_ATOM_DEF_STEREO_COUNT>
0

> <PUBCHEM_ATOM_UDEF_STEREO_COUNT>
0

> <PUBCHEM_BOND_DEF_STEREO_COUNT>
0

> <PUBCHEM_BOND_UDEF_STEREO_COUNT>
0

> <PUBCHEM_ISOTOPIC_ATOM_COUNT>
0

> <PUBCHEM_COMPONENT_COUNT>
1

> <PUBCHEM_CACTVS_TAUTO_COUNT>
1

> <PUBCHEM_COORDINATE_TYPE>
1
5
255

$$$$
