


 25 18  0  0000  0  0  0  0  0999 V2000
    3.4767   -0.0229    0.0000 Co  0  1  0  0  0  0  0  0  0  0  0
    2.6105   -0.5228    0.0000 N   0  0  0  0  0  0  0  0  0  0  0
    4.3429   -0.5228    0.0000 N   0  0  0  0  0  0  0  0  0  0  0
    3.4767   -1.0227    0.0000 N   0  0  0  0  0  0  0  0  0  0  0
    3.4766    0.9772    0.0000 N   0  0  0  0  0  0  0  0  0  0  0
    2.6106    0.4773    0.0000 N   0  0  0  0  0  0  0  0  0  0  0
    4.3427    0.4773    0.0000 N   0  0  0  0  0  0  0  0  0  0  0
    2.8227   -1.1054    0.0000 H   0  0  0  0  0  0  0  0  0  0  0
    2.2120   -0.9976    0.0000 H   0  0  0  0  0  0  0  0  0  0  0
    2.0000   -0.4151    0.0000 H   0  0  0  0  0  0  0  0  0  0  0
    4.3429    0.0973    0.0000 H   0  0  0  0  0  0  0  0  0  0  0
    4.8798   -0.2128    0.0000 H   0  0  0  0  0  0  0  0  0  0  0
    4.8799   -0.8329    0.0000 H   0  0  0  0  0  0  0  0  0  0  0
    4.0969   -1.0227    0.0000 H   0  0  0  0  0  0  0  0  0  0  0
    3.7868   -1.5597    0.0000 H   0  0  0  0  0  0  0  0  0  0  0
    3.1666   -1.5597    0.0000 H   0  0  0  0  0  0  0  0  0  0  0
    2.8661    1.0849    0.0000 H   0  0  0  0  0  0  0  0  0  0  0
    3.2647    1.5597    0.0000 H   0  0  0  0  0  0  0  0  0  0  0
    3.8751    1.4522    0.0000 H   0  0  0  0  0  0  0  0  0  0  0
    2.1356    0.0789    0.0000 H   0  0  0  0  0  0  0  0  0  0  0
    2.0001    0.5849    0.0000 H   0  0  0  0  0  0  0  0  0  0  0
    2.3007    1.0141    0.0000 H   0  0  0  0  0  0  0  0  0  0  0
    4.2350    1.0878    0.0000 H   0  0  0  0  0  0  0  0  0  0  0
    4.7413    0.9522    0.0000 H   0  0  0  0  0  0  0  0  0  0  0
    4.9628    0.4773    0.0000 H   0  0  0  0  0  0  0  0  0  0  0
  2  8  1  0
  2  9  1  0
  2 10  1  0
  3 11  1  0
  3 12  1  0
  3 13  1  0
  4 14  1  0
  4 15  1  0
  4 16  1  0
  5 17  1  0
  5 18  1  0
  5 19  1  0
  6 20  1  0
  6 21  1  0
  6 22  1  0
  7 23  1  0
  7 24  1  0
  7 25  1  0
M  CHG  1   1   3
M  END

> <PUBCHEM_NONSTANDARDBOND>
1  2  6
1  3  6
1  4  6
1  5  6
1  6  6
1  7  6

> <PUBCHEM_BONDANNOTATIONS>
1  2  4
1  3  4
1  4  4
1  5  4
1  6  4
1  7  4

> <StdInChI>
InChI=1S/Co.6H3N/h;6*1H3/q+3;;;;;;

> <StdInChIKey>
DYLMFCCYOUSRTK-UHFFFAOYSA-N

> <AuxInfo>
1/0/N:1;2;3;4;5;6;7/rA:25nCo+3NNNNNNHHHHHHHHHHHHHHHHHH/rB:;;;;;;s2;s2;s2;s3;s3;s3;s4;s4;s4;s5;s5;s5;s6;s6;s6;s7;s7;s7;/rC:3.4767,-.0229,0;2.6105,-.5228,0;4.3429,-.5228,0;3.4767,-1.0227,0;3.4766,.9772,0;2.6106,.4773,0;4.3427,.4773,0;2.8227,-1.1054,0;2.212,-.9976,0;2,-.4151,0;4.3429,.0973,0;4.8798,-.2128,0;4.8799,-.8329,0;4.0969,-1.0227,0;3.7868,-1.5597,0;3.1666,-1.5597,0;2.8661,1.0849,0;3.2647,1.5597,0;3.8751,1.4522,0;2.1356,.0789,0;2.0001,.5849,0;2.3007,1.0141,0;4.235,1.0878,0;4.7413,.9522,0;4.9628,.4773,0;

> <Formula>
Co H18 N6

> <Mw>
161.1163

> <SMILES>
[Co+3].N([H])([H])[H].N([H])([H])[H].N([H])([H])[H].N([H])([H])[H].N([H])([H])[H].N([H])([H])[H]

> <CSID>
399316

$$$$
