20150708
  -OEChem-10091719332D

  5  2  0     0  0  0  0  0  0999 V2000
    0.0369    0.0000    0.0000 Fe  0  1  0  0  0  0  0  0  0  0  0  0
    0.5369    2.5000    0.0000 O   0  0  0  0  0  0  0  0  0  0  0  0
    1.0369    0.0000    0.0000 O   0  6  0  0  0  0  0  0  0  0  0  0
    1.0739    2.8100    0.0000 H   0  0  0  0  0  0  0  0  0  0  0  0
    0.0000    2.8100    0.0000 H   0  0  0  0  0  0  0  0  0  0  0  0
  2  4  1  0  0  0  0
  2  5  1  0  0  0  0
M  CHG  2   1   3   3  -2
M  END
> <PUBCHEM_COMPOUND_CID>
20150708

> <PUBCHEM_COMPOUND_CANONICALIZED>
1

> <PUBCHEM_CACTVS_COMPLEXITY>
0

> <PUBCHEM_CACTVS_HBOND_ACCEPTOR>
2

> <PUBCHEM_CACTVS_HBOND_DONOR>
1

> <PUBCHEM_CACTVS_ROTATABLE_BOND>
0

> <PUBCHEM_CACTVS_SUBSKEYS>
AAADcQAAMAAAAAAgAAAAAAAAAAAAAAAAAAAAAAAAAAAAAAAAAAAAAAAACAAAAAAAAAAAAAAAAAAAAAAAAAAAAAAAAAAAAAAAAAAAAAAAAAAAAAAAAAAAAAAAAAAAAAAAAAAAAAAAAAAAAAAAAAAAAAAAAA==

> <PUBCHEM_IUPAC_OPENEYE_NAME>
ferric;oxygen(2-);hydrate

> <PUBCHEM_IUPAC_CAS_NAME>
iron(3+);oxygen(2-);hydrate

> <PUBCHEM_IUPAC_NAME>
iron(3+);oxygen(2-);hydrate

> <PUBCHEM_IUPAC_SYSTEMATIC_NAME>
iron(3+);oxygen(2-);hydrate

> <PUBCHEM_IUPAC_TRADITIONAL_NAME>
ferric;oxygen(2-);hydrate

> <PUBCHEM_IUPAC_INCHI>
InChI=1S/Fe.H2O.O/h;1H2;/q+3;;-2

> <PUBCHEM_IUPAC_INCHIKEY>
IEECXTSVVFWGSE-UHFFFAOYSA-N

> <PUBCHEM_EXACT_MASS>
89.94

> <PUBCHEM_MOLECULAR_FORMULA>
FeH2O2+

> <PUBCHEM_MOLECULAR_WEIGHT>
89.859

> <PUBCHEM_OPENEYE_CAN_SMILES>
O.[O-2].[Fe+3]

> <PUBCHEM_OPENEYE_ISO_SMILES>
O.[O-2].[Fe+3]

> <PUBCHEM_CACTVS_TPSA>
2

> <PUBCHEM_MONOISOTOPIC_WEIGHT>
89.94

> <PUBCHEM_TOTAL_CHARGE>
1

> <PUBCHEM_HEAVY_ATOM_COUNT>
3

> <PUBCHEM_ATOM_DEF_STEREO_COUNT>
0

> <PUBCHEM_ATOM_UDEF_STEREO_COUNT>
0

> <PUBCHEM_BOND_DEF_STEREO_COUNT>
0

> <PUBCHEM_BOND_UDEF_STEREO_COUNT>
0

> <PUBCHEM_ISOTOPIC_ATOM_COUNT>
0

> <PUBCHEM_COMPONENT_COUNT>
3

> <PUBCHEM_CACTVS_TAUTO_COUNT>
1

> <PUBCHEM_COORDINATE_TYPE>
1
5
255

$$$$
