159790
  -OEChem-10081712122D

 17 12  0     0  0  0  0  0  0999 V2000
    0.0000    3.1450    0.0000 Pt  0  2  0  0  0  0  0  0  0  0  0  0
    3.0369    0.6200    0.0000 N   0  0  0  0  0  0  0  0  0  0  0  0
    3.0369    3.5500    0.0000 N   0  0  0  0  0  0  0  0  0  0  0  0
    3.0369    6.4800    0.0000 N   0  0  0  0  0  0  0  0  0  0  0  0
    6.1108    3.5500    0.0000 N   0  0  0  0  0  0  0  0  0  0  0  0
    6.6477    3.8600    0.0000 H   0  0  0  0  0  0  0  0  0  0  0  0
    5.5739    3.8600    0.0000 H   0  0  0  0  0  0  0  0  0  0  0  0
    6.1108    2.9300    0.0000 H   0  0  0  0  0  0  0  0  0  0  0  0
    3.5739    6.7900    0.0000 H   0  0  0  0  0  0  0  0  0  0  0  0
    2.5000    6.7900    0.0000 H   0  0  0  0  0  0  0  0  0  0  0  0
    3.0369    5.8600    0.0000 H   0  0  0  0  0  0  0  0  0  0  0  0
    3.5739    3.8600    0.0000 H   0  0  0  0  0  0  0  0  0  0  0  0
    2.5000    3.8600    0.0000 H   0  0  0  0  0  0  0  0  0  0  0  0
    3.0369    2.9300    0.0000 H   0  0  0  0  0  0  0  0  0  0  0  0
    3.5739    0.9300    0.0000 H   0  0  0  0  0  0  0  0  0  0  0  0
    2.5000    0.9300    0.0000 H   0  0  0  0  0  0  0  0  0  0  0  0
    3.0369    0.0000    0.0000 H   0  0  0  0  0  0  0  0  0  0  0  0
  2 15  1  0  0  0  0
  2 16  1  0  0  0  0
  2 17  1  0  0  0  0
  3 12  1  0  0  0  0
  3 13  1  0  0  0  0
  3 14  1  0  0  0  0
  4  9  1  0  0  0  0
  4 10  1  0  0  0  0
  4 11  1  0  0  0  0
  5  6  1  0  0  0  0
  5  7  1  0  0  0  0
  5  8  1  0  0  0  0
M  CHG  1   1   2
M  END
> <PUBCHEM_COMPOUND_CID>
159790

> <PUBCHEM_COMPOUND_CANONICALIZED>
1

> <PUBCHEM_CACTVS_COMPLEXITY>
0

> <PUBCHEM_CACTVS_HBOND_ACCEPTOR>
4

> <PUBCHEM_CACTVS_HBOND_DONOR>
4

> <PUBCHEM_CACTVS_ROTATABLE_BOND>
0

> <PUBCHEM_CACTVS_SUBSKEYS>
AAADccADgAAAAAAAAAAABAAAAAAAAAAAAAAAAAAAAAAAAAAAAAAAAAAQAAAAAAAAAAAAAAAAAAAAAAAAAAAAAAAAAAAAAAAAAAAAAAAAAAAAAAAAAAAAAAAAAAAAAAAAAAAAAAAAAAAAAAAAAAAAAAAAAA==

> <PUBCHEM_IUPAC_OPENEYE_NAME>
ammonia;platinum(2+)

> <PUBCHEM_IUPAC_CAS_NAME>
ammonia;platinum(2+)

> <PUBCHEM_IUPAC_NAME>
azane;platinum(2+)

> <PUBCHEM_IUPAC_SYSTEMATIC_NAME>
azane;platinum(2+)

> <PUBCHEM_IUPAC_TRADITIONAL_NAME>
ammonia;platinum(2+)

> <PUBCHEM_IUPAC_INCHI>
InChI=1S/4H3N.Pt/h4*1H3;/q;;;;+2

> <PUBCHEM_IUPAC_INCHIKEY>
NOWPEMKUZKNSGG-UHFFFAOYSA-N

> <PUBCHEM_EXACT_MASS>
263.071

> <PUBCHEM_MOLECULAR_FORMULA>
H12N4Pt+2

> <PUBCHEM_MOLECULAR_WEIGHT>
263.208

> <PUBCHEM_OPENEYE_CAN_SMILES>
N.N.N.N.[Pt+2]

> <PUBCHEM_OPENEYE_ISO_SMILES>
N.N.N.N.[Pt+2]

> <PUBCHEM_CACTVS_TPSA>
4

> <PUBCHEM_MONOISOTOPIC_WEIGHT>
263.071

> <PUBCHEM_TOTAL_CHARGE>
2

> <PUBCHEM_HEAVY_ATOM_COUNT>
5

> <PUBCHEM_ATOM_DEF_STEREO_COUNT>
0

> <PUBCHEM_ATOM_UDEF_STEREO_COUNT>
0

> <PUBCHEM_BOND_DEF_STEREO_COUNT>
0

> <PUBCHEM_BOND_UDEF_STEREO_COUNT>
0

> <PUBCHEM_ISOTOPIC_ATOM_COUNT>
0

> <PUBCHEM_COMPONENT_COUNT>
5

> <PUBCHEM_CACTVS_TAUTO_COUNT>
1

> <PUBCHEM_COORDINATE_TYPE>
1
5
255

$$$$
